ligand_pdbs\17W.pdb
 OpenBabel06092512053D

 19 21  0  0  0  0  0  0  0  0999 V2000
   20.0700   16.7180   31.7920 C   0  0  0  0  0  0  0  0  0  0  0  0
   20.8680   16.2350   32.8180 C   0  0  0  0  0  0  0  0  0  0  0  0
   20.8400   14.8750   33.1200 C   0  0  0  0  0  0  0  0  0  0  0  0
   20.0240   13.9970   32.4070 C   0  0  0  0  0  0  0  0  0  0  0  0
   19.2220   14.4850   31.3820 C   0  0  0  0  0  0  0  0  0  0  0  0
   19.2500   15.8460   31.0750 C   0  0  0  0  0  0  0  0  0  0  0  0
   18.4700   16.3530   30.0680 O   0  0  0  0  0  0  0  0  0  0  0  0
   17.8260   15.5260   29.1040 C   0  0  0  0  0  0  0  0  0  0  0  0
   17.3420   16.4560   27.9980 C   0  0  0  0  0  0  0  0  0  0  0  0
   15.5860   16.4150   27.8900 S   0  0  0  0  0  0  0  0  0  0  0  0
   14.8680   18.0200   27.9790 C   0  0  0  0  0  0  0  0  0  0  0  0
   15.2470   18.9460   28.8900 N   0  0  0  0  0  4  0  0  0  0  0  0
   14.4600   20.0280   28.6410 C   0  0  0  0  0  0  0  0  0  0  0  0
   13.8760   18.3960   27.1540 N   0  0  0  0  0  4  0  0  0  0  0  0
   13.5680   19.6630   27.5050 C   0  0  0  0  0  0  0  0  0  0  0  0
   12.6460   20.6030   27.0390 C   0  0  0  0  0  0  0  0  0  0  0  0
   12.5730   21.8600   27.6360 C   0  0  0  0  0  0  0  0  0  0  0  0
   13.4100   22.2020   28.6990 C   0  0  0  0  0  0  0  0  0  0  0  0
   14.3470   21.2990   29.2020 C   0  0  0  0  0  0  0  0  0  0  0  0
  1  2  1  0  0  0  0
  2  3  2  0  0  0  0
  4  3  1  0  0  0  0
  5  4  2  0  0  0  0
  6  5  1  0  0  0  0
  6  1  2  0  0  0  0
  7  6  1  0  0  0  0
  8  7  1  0  0  0  0
  9  8  1  0  0  0  0
 10 11  1  0  0  0  0
 10  9  1  0  0  0  0
 11 12  2  0  0  0  0
 13 12  2  0  0  0  0
 13 19  1  0  0  0  0
 14 15  2  0  0  0  0
 14 11  2  0  0  0  0
 15 13  1  0  0  0  0
 16 15  1  0  0  0  0
 16 17  2  0  0  0  0
 17 18  1  0  0  0  0
 18 19  2  0  0  0  0
M  END
