ligand_pdbs\3XV.pdb
 OpenBabel06092512053D

 28 31  0  0  1  0  0  0  0  0999 V2000
   22.6980  -51.8800   -9.5380 C   0  0  0  0  0  0  0  0  0  0  0  0
   21.9690  -50.2190  -11.0960 C   0  0  0  0  0  0  0  0  0  0  0  0
   23.2550  -50.1780  -11.6640 C   0  0  0  0  0  0  0  0  0  0  0  0
   24.2580  -51.0130  -11.1410 C   0  0  0  0  0  0  0  0  0  0  0  0
   22.6940  -44.5410  -10.6490 C   0  0  0  0  0  0  0  0  0  0  0  0
   23.1820  -43.2140  -10.1550 C   0  0  0  0  0  0  0  0  0  0  0  0
   23.0950  -43.1370   -8.7550 C   0  0  0  0  0  0  0  0  0  0  0  0
   23.8720  -42.1720   -8.0960 C   0  0  0  0  0  0  0  0  0  0  0  0
   23.8280  -42.0550   -6.7060 C   0  0  0  0  0  0  0  0  0  0  0  0
   23.0060  -42.8920   -5.9570 C   0  0  0  0  0  0  0  0  0  0  0  0
   22.2240  -43.8490   -6.5960 C   0  0  0  0  0  0  0  0  0  0  0  0
   22.2590  -43.9850   -7.9940 C   0  0  0  0  0  0  0  0  0  0  0  0
   21.4540  -44.9730   -8.5730 C   0  0  0  0  0  0  0  0  0  0  0  0
   21.3950  -44.8900  -10.0420 N   0  0  0  0  0  0  0  0  0  0  0  0
   21.0110  -46.2030  -10.5670 C   0  0  0  0  0  0  0  0  0  0  0  0
   19.5250  -46.4890  -10.3170 C   0  0  1  0  0  0  0  0  0  0  0  0
   18.7520  -45.4130  -10.8630 O   0  0  0  0  0  0  0  0  0  0  0  0
   19.1220  -47.8450  -10.9480 C   0  0  0  0  0  0  0  0  0  0  0  0
   20.1710  -48.8260  -10.6350 N   0  0  0  0  0  0  0  0  0  0  0  0
   20.9510  -49.3820  -11.5840 C   0  0  0  0  0  0  0  0  0  0  0  0
   20.8130  -49.1640  -12.7950 O   0  0  0  0  0  0  0  0  0  0  0  0
   21.7090  -51.0450  -10.0550 N   0  0  0  0  0  0  0  0  0  0  0  0
   23.9760  -51.8390  -10.1050 N   0  0  0  0  0  0  0  0  0  0  0  0
   25.5030  -51.0060  -11.6550 N   0  0  0  0  0  0  0  0  0  0  0  0
   26.6070  -51.7870  -11.0510 C   0  0  0  0  0  0  0  0  0  0  0  0
   27.2710  -51.0390   -9.9030 C   0  0  0  0  0  0  0  0  0  0  0  0
   28.5570  -51.3460  -10.5250 O   0  0  0  0  0  0  0  0  0  0  0  0
   27.9090  -51.5750  -11.8110 C   0  0  0  0  0  0  0  0  0  0  0  0
  2 22  2  0  0  0  0
  3  4  1  0  0  0  0
  3  2  1  0  0  0  0
  4 23  2  0  0  0  0
  5  6  1  0  0  0  0
  5 14  1  0  0  0  0
  6  7  1  0  0  0  0
  7  8  2  0  0  0  0
  7 12  1  0  0  0  0
  8  9  1  0  0  0  0
  9 10  2  0  0  0  0
 11 10  1  0  0  0  0
 12 11  2  0  0  0  0
 13 12  1  0  0  0  0
 14 13  1  0  0  0  0
 15 16  1  0  0  0  0
 15 14  1  0  0  0  0
 16 17  1  6  0  0  0
 18 19  1  0  0  0  0
 18 16  1  0  0  0  0
 20  2  1  0  0  0  0
 20 19  1  0  0  0  0
 21 20  2  0  0  0  0
 22  1  1  0  0  0  0
 23  1  1  0  0  0  0
 24  4  1  0  0  0  0
 24 25  1  0  0  0  0
 25 26  1  0  0  0  0
 27 26  1  0  0  0  0
 28 25  1  0  0  0  0
 28 27  1  0  0  0  0
M  END
