ligand_pdbs\4Z2.pdb
 OpenBabel06092512053D

 28 31  0  0  1  0  0  0  0  0999 V2000
   27.5070  -50.7230   -9.9040 C   0  0  0  0  0  0  0  0  0  0  0  0
   28.8130  -51.2700  -10.4730 C   0  0  0  0  0  0  0  0  0  0  0  0
   28.0320  -51.7170  -11.7010 C   0  0  0  0  0  0  0  0  0  0  0  0
   26.7730  -51.6550  -10.8420 C   0  0  0  0  0  0  0  0  0  0  0  0
   25.6810  -50.9320  -11.5210 N   0  0  0  0  0  0  0  0  0  0  0  0
   24.4320  -50.9750  -11.0500 C   0  0  0  0  0  0  0  0  0  0  0  0
   23.4350  -50.1390  -11.5660 C   0  0  0  0  0  0  0  0  0  0  0  0
   24.1430  -51.8400  -10.0590 N   0  0  0  0  0  0  0  0  0  0  0  0
   22.8490  -51.9300   -9.5260 C   0  0  0  0  0  0  0  0  0  0  0  0
   21.8460  -51.1130  -10.0240 C   0  0  0  0  0  0  0  0  0  0  0  0
   22.1370  -50.2160  -11.0540 C   0  0  0  0  0  0  0  0  0  0  0  0
   21.1290  -49.3840  -11.5440 C   0  0  0  0  0  0  0  0  0  0  0  0
   21.0160  -49.1520  -12.7490 O   0  0  0  0  0  0  0  0  0  0  0  0
   20.3320  -48.8560  -10.5960 N   0  0  0  0  0  0  0  0  0  0  0  0
   19.2450  -47.9060  -10.8900 C   0  0  0  0  0  0  0  0  0  0  0  0
   19.6260  -46.5360  -10.2890 C   0  0  2  0  0  0  0  0  0  0  0  0
   18.7150  -45.5290  -10.7310 O   0  0  0  0  0  0  0  0  0  0  0  0
   21.0580  -46.1420  -10.7030 C   0  0  0  0  0  0  0  0  0  0  0  0
   21.4660  -44.8100  -10.2240 N   0  0  0  0  0  0  0  0  0  0  0  0
   22.8470  -44.5900  -10.6880 C   0  0  0  0  0  0  0  0  0  0  0  0
   23.3630  -43.2340  -10.2490 C   0  0  0  0  0  0  0  0  0  0  0  0
   23.1670  -43.0680   -8.8740 C   0  0  0  0  0  0  0  0  0  0  0  0
   23.9560  -42.1260   -8.2060 C   0  0  0  0  0  0  0  0  0  0  0  0
   23.8030  -41.9280   -6.8330 C   0  0  0  0  0  0  0  0  0  0  0  0
   22.8570  -42.6690   -6.1190 C   0  0  0  0  0  0  0  0  0  0  0  0
   22.0650  -43.6090   -6.7800 C   0  0  0  0  0  0  0  0  0  0  0  0
   22.2080  -43.8120   -8.1530 C   0  0  0  0  0  0  0  0  0  0  0  0
   21.3940  -44.7780   -8.7480 C   0  0  0  0  0  0  0  0  0  0  0  0
  2  1  1  0  0  0  0
  3  4  1  0  0  0  0
  3  2  1  0  0  0  0
  4  1  1  0  0  0  0
  5  6  1  0  0  0  0
  5  4  1  0  0  0  0
  6  8  2  0  0  0  0
  7 11  2  0  0  0  0
  7  6  1  0  0  0  0
  8  9  1  0  0  0  0
 10  9  2  0  0  0  0
 11 10  1  0  0  0  0
 12 11  1  0  0  0  0
 12 14  1  0  0  0  0
 13 12  2  0  0  0  0
 15 14  1  0  0  0  0
 15 16  1  0  0  0  0
 16 17  1  6  0  0  0
 18 16  1  0  0  0  0
 18 19  1  0  0  0  0
 19 28  1  0  0  0  0
 20 21  1  0  0  0  0
 20 19  1  0  0  0  0
 21 22  1  0  0  0  0
 22 23  2  0  0  0  0
 22 27  1  0  0  0  0
 23 24  1  0  0  0  0
 24 25  2  0  0  0  0
 26 25  1  0  0  0  0
 27 26  2  0  0  0  0
 28 27  1  0  0  0  0
M  END
