ligand_pdbs\5QH.pdb
 OpenBabel06092512053D

 29 32  0  0  1  0  0  0  0  0999 V2000
   22.7150  -44.4170  -10.6530 C   0  0  0  0  0  0  0  0  0  0  0  0
   22.9620  -43.0370  -10.2120 C   0  0  0  0  0  0  0  0  0  0  0  0
   22.9500  -42.9680   -8.8060 C   0  0  0  0  0  0  0  0  0  0  0  0
   23.7070  -41.9750   -8.1600 C   0  0  0  0  0  0  0  0  0  0  0  0
   23.7340  -41.8690   -6.7690 C   0  0  0  0  0  0  0  0  0  0  0  0
   22.9770  -42.7540   -5.9920 C   0  0  0  0  0  0  0  0  0  0  0  0
   22.2160  -43.7440   -6.6160 C   0  0  0  0  0  0  0  0  0  0  0  0
   22.1990  -43.8610   -8.0150 C   0  0  0  0  0  0  0  0  0  0  0  0
   21.4270  -44.8790   -8.5800 C   0  0  0  0  0  0  0  0  0  0  0  0
   21.4780  -44.9160  -10.0530 N   0  0  0  0  0  0  0  0  0  0  0  0
   21.1320  -46.2590  -10.5460 C   0  0  0  0  0  0  0  0  0  0  0  0
   19.5990  -46.4610  -10.3950 C   0  0  1  0  0  0  0  0  0  0  0  0
   18.9310  -45.2730  -10.7510 O   0  0  0  0  0  0  0  0  0  0  0  0
   19.1290  -47.6300  -11.2510 C   0  0  0  0  0  0  0  0  0  0  0  0
   19.6980  -48.7690  -10.5270 N   0  0  0  0  0  0  0  0  0  0  0  0
   19.0620  -49.4360   -9.5530 C   0  0  0  0  0  0  0  0  0  0  0  0
   17.8940  -49.2110   -9.2330 O   0  0  0  0  0  0  0  0  0  0  0  0
   19.8100  -50.4330   -8.8980 C   0  0  0  0  0  0  0  0  0  0  0  0
   21.1920  -50.5980   -9.0950 C   0  0  0  0  0  0  0  0  0  0  0  0
   19.1550  -51.2720   -7.9940 C   0  0  0  0  0  0  0  0  0  0  0  0
   19.8410  -52.2720   -7.3050 C   0  0  0  0  0  0  0  0  0  0  0  0
   21.2050  -52.4330   -7.5110 C   0  0  0  0  0  0  0  0  0  0  0  0
   21.8830  -51.6020   -8.4000 C   0  0  0  0  0  0  0  0  0  0  0  0
   23.2490  -51.8080   -8.5690 C   0  0  0  0  0  0  0  0  0  0  0  0
   23.7900  -51.7170   -9.8090 N   0  0  0  0  0  0  0  0  0  0  0  0
   25.1700  -51.9250  -10.0020 C   0  0  0  0  0  0  0  0  0  0  0  0
   25.9600  -52.2380   -8.8920 C   0  0  0  0  0  0  0  0  0  0  0  0
   25.4110  -52.3320   -7.6110 C   0  0  0  0  0  0  0  0  0  0  0  0
   24.0450  -52.1140   -7.4470 C   0  0  0  0  0  0  0  0  0  0  0  0
  1  2  1  0  0  0  0
  1 10  1  0  0  0  0
  2  3  1  0  0  0  0
  3  4  2  0  0  0  0
  3  8  1  0  0  0  0
  4  5  1  0  0  0  0
  5  6  2  0  0  0  0
  7  6  1  0  0  0  0
  8  7  2  0  0  0  0
  9  8  1  0  0  0  0
 10  9  1  0  0  0  0
 11 12  1  0  0  0  0
 11 10  1  0  0  0  0
 12 13  1  6  0  0  0
 14 15  1  0  0  0  0
 14 12  1  0  0  0  0
 15 16  1  0  0  0  0
 16 17  2  0  0  0  0
 16 18  1  0  0  0  0
 18 20  1  0  0  0  0
 19 18  2  0  0  0  0
 19 23  1  0  0  0  0
 20 21  2  0  0  0  0
 22 21  1  0  0  0  0
 23 22  2  0  0  0  0
 24 23  1  0  0  0  0
 24 29  1  0  0  0  0
 25 24  2  0  0  0  0
 26 25  1  0  0  0  0
 26 27  2  0  0  0  0
 27 28  1  0  0  0  0
 28 29  2  0  0  0  0
M  END
