ligand_pdbs\5QL.pdb
 OpenBabel06092512053D

 30 33  0  0  1  0  0  0  0  0999 V2000
   22.9070  -44.6730  -10.6760 C   0  0  0  0  0  0  0  0  0  0  0  0
   23.1350  -43.2580  -10.2810 C   0  0  0  0  0  0  0  0  0  0  0  0
   23.0400  -43.1650   -8.8970 C   0  0  0  0  0  0  0  0  0  0  0  0
   23.7730  -42.1650   -8.2350 C   0  0  0  0  0  0  0  0  0  0  0  0
   23.7160  -42.0570   -6.8400 C   0  0  0  0  0  0  0  0  0  0  0  0
   22.9250  -42.9460   -6.0950 C   0  0  0  0  0  0  0  0  0  0  0  0
   22.1940  -43.9440   -6.7450 C   0  0  0  0  0  0  0  0  0  0  0  0
   22.2480  -44.0550   -8.1430 C   0  0  0  0  0  0  0  0  0  0  0  0
   21.5210  -45.0870   -8.7380 C   0  0  0  0  0  0  0  0  0  0  0  0
   21.5660  -45.0740  -10.2090 N   0  0  0  0  0  0  0  0  0  0  0  0
   21.2190  -46.4260  -10.6860 C   0  0  0  0  0  0  0  0  0  0  0  0
   19.7580  -46.8410  -10.2590 C   0  0  1  0  0  0  0  0  0  0  0  0
   18.8460  -45.7730  -10.4420 O   0  0  0  0  0  0  0  0  0  0  0  0
   19.3020  -48.1070  -11.0050 C   0  0  0  0  0  0  0  0  0  0  0  0
   20.3900  -49.0560  -10.7100 N   0  0  0  0  0  0  0  0  0  0  0  0
   21.1910  -49.5750  -11.6490 C   0  0  0  0  0  0  0  0  0  0  0  0
   21.0540  -49.3650  -12.8600 O   0  0  0  0  0  0  0  0  0  0  0  0
   22.2290  -50.3760  -11.1470 C   0  0  0  0  0  0  0  0  0  0  0  0
   23.4470  -50.4370  -11.8270 C   0  0  0  0  0  0  0  0  0  0  0  0
   22.0820  -51.0900   -9.9420 C   0  0  0  0  0  0  0  0  0  0  0  0
   23.1190  -51.8770   -9.4320 C   0  0  0  0  0  0  0  0  0  0  0  0
   24.3140  -51.9410  -10.1400 C   0  0  0  0  0  0  0  0  0  0  0  0
   24.4980  -51.2100  -11.3210 C   0  0  0  0  0  0  0  0  0  0  0  0
   25.6220  -51.2680  -12.0580 N   0  0  0  0  0  0  0  0  0  0  0  0
   27.0580  -51.2170  -11.6610 C   0  0  0  0  0  0  0  0  0  0  0  0
   27.8920  -52.1440  -12.5630 C   0  0  0  0  0  0  0  0  0  0  0  0
   29.3580  -51.8250  -12.3070 C   0  0  0  0  0  0  0  0  0  0  0  0
   29.6790  -52.0430  -10.9170 O   0  0  0  0  0  0  0  0  0  0  0  0
   28.8890  -51.2770   -9.9940 C   0  0  0  0  0  0  0  0  0  0  0  0
   27.3840  -51.5630  -10.2070 C   0  0  0  0  0  0  0  0  0  0  0  0
  1  2  1  0  0  0  0
  1 10  1  0  0  0  0
  2  3  1  0  0  0  0
  3  4  2  0  0  0  0
  3  8  1  0  0  0  0
  4  5  1  0  0  0  0
  5  6  2  0  0  0  0
  7  6  1  0  0  0  0
  8  7  2  0  0  0  0
  9  8  1  0  0  0  0
 10  9  1  0  0  0  0
 11 12  1  0  0  0  0
 11 10  1  0  0  0  0
 12 13  1  6  0  0  0
 14 15  1  0  0  0  0
 14 12  1  0  0  0  0
 16 18  1  0  0  0  0
 16 15  1  0  0  0  0
 17 16  2  0  0  0  0
 18 20  1  0  0  0  0
 19 23  1  0  0  0  0
 19 18  2  0  0  0  0
 20 21  2  0  0  0  0
 22 21  1  0  0  0  0
 23 22  2  0  0  0  0
 24 25  1  0  0  0  0
 24 23  1  0  0  0  0
 25 30  1  0  0  0  0
 26 27  1  0  0  0  0
 26 25  1  0  0  0  0
 27 28  1  0  0  0  0
 28 29  1  0  0  0  0
 30 29  1  0  0  0  0
M  END
