ligand_pdbs\84W.pdb
 OpenBabel06092512053D

 33 35  0  0  0  0  0  0  0  0999 V2000
  -31.6750  -47.7330   -9.9640 C   0  0  0  0  0  0  0  0  0  0  0  0
  -33.0320  -47.7290  -10.1290 C   0  0  0  0  0  0  0  0  0  0  0  0
  -30.7450  -46.5500  -10.2340 C   0  0  0  0  0  0  0  0  0  0  0  0
  -29.4460  -46.7430  -10.6780 C   0  0  0  0  0  0  0  0  0  0  0  0
  -29.1190  -44.3190  -10.7110 C   0  0  0  0  0  0  0  0  0  0  0  0
  -30.8710  -42.8360  -10.0740 C   0  0  0  0  0  0  0  0  0  0  0  0
  -32.4820  -51.0900   -8.9670 C   0  0  0  0  0  0  0  0  0  0  0  0
  -31.3100  -48.9710   -9.5130 C   0  0  0  0  0  0  0  0  0  0  0  0
  -28.6260  -45.6490  -10.9170 C   0  0  0  0  0  0  0  0  0  0  0  0
  -32.4110  -49.7100   -9.4070 N   0  0  0  0  0  0  0  0  0  0  0  0
  -33.4920  -48.9300   -9.7930 N   0  0  0  0  0  0  0  0  0  0  0  0
  -28.2940  -43.2000  -10.9500 C   0  0  0  0  0  0  0  0  0  0  0  0
  -32.3030  -42.6430   -9.5900 C   0  0  0  0  0  0  0  0  0  0  0  0
  -30.3750  -44.1380  -10.2840 C   0  0  0  0  0  0  0  0  0  0  0  0
  -31.2160  -45.2670  -10.0350 C   0  0  0  0  0  0  0  0  0  0  0  0
  -28.7700  -41.9610  -10.7520 N   0  0  0  0  0  0  0  0  0  0  0  0
  -30.0880  -41.7720  -10.3050 N   0  0  0  0  0  0  0  0  0  0  0  0
  -32.7770  -41.3430  -10.0230 N   0  0  0  0  0  4  0  0  0  0  0  0
  -26.9810  -43.3810  -11.3950 O   0  0  0  0  0  0  0  0  0  0  0  0
  -33.6290  -46.8930  -10.4730 H   0  0  0  0  0  0  0  0  0  0  0  0
  -29.0720  -47.7460  -10.8390 H   0  0  0  0  0  0  0  0  0  0  0  0
  -33.4840  -51.4730   -9.1360 H   0  0  0  0  0  0  0  0  0  0  0  0
  -32.2470  -51.1450   -7.9080 H   0  0  0  0  0  0  0  0  0  0  0  0
  -31.7670  -51.6860   -9.5280 H   0  0  0  0  0  0  0  0  0  0  0  0
  -30.3020  -49.2940   -9.2820 H   0  0  0  0  0  0  0  0  0  0  0  0
  -27.6090  -45.8010  -11.2610 H   0  0  0  0  0  0  0  0  0  0  0  0
  -32.3320  -42.6990   -8.5070 H   0  0  0  0  0  0  0  0  0  0  0  0
  -32.9360  -43.4190  -10.0100 H   0  0  0  0  0  0  0  0  0  0  0  0
  -32.2310  -45.1150   -9.6880 H   0  0  0  0  0  0  0  0  0  0  0  0
  -28.1830  -41.1690  -10.9230 H   0  0  0  0  0  0  0  0  0  0  0  0
  -32.2090  -40.6250   -9.6090 H   0  0  0  0  0  0  0  0  0  0  0  0
  -33.7330  -41.2220   -9.7340 H   0  0  0  0  0  0  0  0  0  0  0  0
  -32.7190  -41.2810  -11.0240 H   0  0  0  0  0  0  0  0  0  0  0  0
  1  8  2  0  0  0  0
  2  1  1  0  0  0  0
  2 11  2  0  0  0  0
  3 15  1  0  0  0  0
  3  1  1  0  0  0  0
  4  3  2  0  0  0  0
  5 14  1  0  0  0  0
  6 13  1  0  0  0  0
  7 23  1  0  0  0  0
  8 10  1  0  0  0  0
  8 25  1  0  0  0  0
  9  5  2  0  0  0  0
  9  4  1  0  0  0  0
 10  7  1  0  0  0  0
 11 10  1  0  0  0  0
 12 16  1  0  0  0  0
 12  5  1  0  0  0  0
 13 27  1  0  0  0  0
 14  6  1  0  0  0  0
 14 15  2  0  0  0  0
 15 29  1  0  0  0  0
 16 17  1  0  0  0  0
 17  6  2  0  0  0  0
 18 32  1  0  0  0  0
 18 31  1  0  0  0  0
 18 13  1  0  0  0  0
 19 12  2  0  0  0  0
 20  2  1  0  0  0  0
 21  4  1  0  0  0  0
 22  7  1  0  0  0  0
 24  7  1  0  0  0  0
 26  9  1  0  0  0  0
 28 13  1  0  0  0  0
 30 16  1  0  0  0  0
 33 18  1  0  0  0  0
M  END
