ligand_pdbs\85K.pdb
 OpenBabel06092512053D

 52 56  0  0  0  0  0  0  0  0999 V2000
  -33.5180  -49.3380   -9.6790 N   0  0  0  0  0  0  0  0  0  0  0  0
  -33.0880  -41.3560   -9.9890 N   0  0  0  0  0  4  0  0  0  0  0  0
  -30.9440  -46.7490  -10.1090 C   0  0  0  0  0  0  0  0  0  0  0  0
  -28.8200  -45.7650  -10.7480 C   0  0  0  0  0  0  0  0  0  0  0  0
  -30.6880  -44.3070  -10.1760 C   0  0  0  0  0  0  0  0  0  0  0  0
  -32.3720  -49.9370   -9.3120 N   0  0  0  0  0  0  0  0  0  0  0  0
  -32.2030  -51.3020   -8.8690 C   0  0  0  0  0  0  0  0  0  0  0  0
  -27.3640  -43.2710  -11.1760 O   0  0  0  0  0  0  0  0  0  0  0  0
  -33.1380  -48.1250  -10.0060 C   0  0  0  0  0  0  0  0  0  0  0  0
  -31.7570  -47.9400   -9.8590 C   0  0  0  0  0  0  0  0  0  0  0  0
  -29.6020  -46.8780  -10.5160 C   0  0  0  0  0  0  0  0  0  0  0  0
  -31.4640  -45.4660   -9.9450 C   0  0  0  0  0  0  0  0  0  0  0  0
  -31.2030  -42.9530  -10.0140 C   0  0  0  0  0  0  0  0  0  0  0  0
  -32.6560  -42.7020   -9.5680 C   0  0  0  0  0  0  0  0  0  0  0  0
  -29.3470  -44.4740  -10.5850 C   0  0  0  0  0  0  0  0  0  0  0  0
  -28.5400  -43.3000  -10.8210 C   0  0  0  0  0  0  0  0  0  0  0  0
  -31.2930  -49.1420   -9.4130 C   0  0  0  0  0  0  0  0  0  0  0  0
  -29.9980  -49.6700   -9.0340 C   0  0  0  0  0  0  0  0  0  0  0  0
  -29.6380  -49.6350   -7.6830 C   0  0  0  0  0  0  0  0  0  0  0  0
  -28.4250  -50.1340   -7.2190 C   0  0  0  0  0  0  0  0  0  0  0  0
  -27.5490  -50.7180   -8.1270 C   0  0  0  0  0  0  0  0  0  0  0  0
  -27.9040  -50.7920   -9.4720 C   0  0  0  0  0  0  0  0  0  0  0  0
  -25.6040  -51.4430  -10.2350 C   0  0  0  0  0  0  0  0  0  0  0  0
  -25.0090  -52.8170  -10.2680 C   0  0  0  0  0  0  0  0  0  0  0  0
  -24.9260  -51.9220  -11.4840 C   0  0  0  0  0  0  0  0  0  0  0  0
  -29.1240  -50.2910   -9.9470 C   0  0  0  0  0  0  0  0  0  0  0  0
  -29.4610  -50.3770  -11.3410 C   0  0  0  0  0  0  0  0  0  0  0  0
  -30.4900  -49.0650   -6.7980 F   0  0  0  0  0  0  0  0  0  0  0  0
  -30.4490  -41.9220  -10.2390 N   0  0  0  0  0  0  0  0  0  0  0  0
  -29.1400  -42.0850  -10.6350 N   0  0  0  0  0  0  0  0  0  0  0  0
  -29.7190  -50.4490  -12.4490 N   0  0  0  0  0  0  0  0  0  0  0  0
  -27.0360  -51.3710  -10.3740 O   0  0  0  0  0  0  0  0  0  0  0  0
  -27.9950  -50.0410   -5.5460 Cl  0  0  0  0  0  0  0  0  0  0  0  0
  -34.0490  -41.2220   -9.7420 H   0  0  0  0  0  0  0  0  0  0  0  0
  -32.9830  -41.2670  -10.9800 H   0  0  0  0  0  0  0  0  0  0  0  0
  -32.5260  -40.6660   -9.5300 H   0  0  0  0  0  0  0  0  0  0  0  0
  -27.7890  -45.8820  -11.0600 H   0  0  0  0  0  0  0  0  0  0  0  0
  -33.0550  -51.8920   -9.1840 H   0  0  0  0  0  0  0  0  0  0  0  0
  -32.1270  -51.3250   -7.7890 H   0  0  0  0  0  0  0  0  0  0  0  0
  -31.3000  -51.7140   -9.3030 H   0  0  0  0  0  0  0  0  0  0  0  0
  -33.7890  -47.3330  -10.3550 H   0  0  0  0  0  0  0  0  0  0  0  0
  -29.1720  -47.8630  -10.6490 H   0  0  0  0  0  0  0  0  0  0  0  0
  -32.4920  -45.3340   -9.6310 H   0  0  0  0  0  0  0  0  0  0  0  0
  -32.7310  -42.7640   -8.4890 H   0  0  0  0  0  0  0  0  0  0  0  0
  -33.3170  -43.4310  -10.0190 H   0  0  0  0  0  0  0  0  0  0  0  0
  -26.6000  -51.1120   -7.7830 H   0  0  0  0  0  0  0  0  0  0  0  0
  -25.0940  -50.8600   -9.4780 H   0  0  0  0  0  0  0  0  0  0  0  0
  -24.0950  -52.9350   -9.6990 H   0  0  0  0  0  0  0  0  0  0  0  0
  -25.7270  -53.6260  -10.3200 H   0  0  0  0  0  0  0  0  0  0  0  0
  -25.5840  -52.1810  -12.3040 H   0  0  0  0  0  0  0  0  0  0  0  0
  -23.9520  -51.4900  -11.6820 H   0  0  0  0  0  0  0  0  0  0  0  0
  -28.5670  -41.2820  -10.8060 H   0  0  0  0  0  0  0  0  0  0  0  0
  1  6  1  0  0  0  0
  2 34  1  0  0  0  0
  2 14  1  0  0  0  0
  2 36  1  0  0  0  0
  3 12  1  0  0  0  0
  3 10  1  0  0  0  0
  4 15  2  0  0  0  0
  4 11  1  0  0  0  0
  5 13  1  0  0  0  0
  5 12  2  0  0  0  0
  6  7  1  0  0  0  0
  7 39  1  0  0  0  0
  8 16  2  0  0  0  0
  9 10  1  0  0  0  0
  9  1  2  0  0  0  0
 10 17  2  0  0  0  0
 11  3  2  0  0  0  0
 12 43  1  0  0  0  0
 13 14  1  0  0  0  0
 14 44  1  0  0  0  0
 15  5  1  0  0  0  0
 16 30  1  0  0  0  0
 16 15  1  0  0  0  0
 17  6  1  0  0  0  0
 17 18  1  0  0  0  0
 18 19  1  0  0  0  0
 19 20  2  0  0  0  0
 19 28  1  0  0  0  0
 20 33  1  0  0  0  0
 21 46  1  0  0  0  0
 21 20  1  0  0  0  0
 22 21  2  0  0  0  0
 23 47  1  0  0  0  0
 24 23  1  0  0  0  0
 24 48  1  0  0  0  0
 25 24  1  0  0  0  0
 25 23  1  0  0  0  0
 26 22  1  0  0  0  0
 26 18  2  0  0  0  0
 27 26  1  0  0  0  0
 29 13  2  0  0  0  0
 30 29  1  0  0  0  0
 31 27  3  0  0  0  0
 32 23  1  0  0  0  0
 32 22  1  0  0  0  0
 35  2  1  0  0  0  0
 37  4  1  0  0  0  0
 38  7  1  0  0  0  0
 40  7  1  0  0  0  0
 41  9  1  0  0  0  0
 42 11  1  0  0  0  0
 45 14  1  0  0  0  0
 49 24  1  0  0  0  0
 50 25  1  0  0  0  0
 51 25  1  0  0  0  0
 52 30  1  0  0  0  0
M  END
