ligand_pdbs\97L.pdb
 OpenBabel06092512053D

 47 51  0  0  0  0  0  0  0  0999 V2000
  -29.2230  -42.1900  -10.7350 N   0  0  0  0  0  0  0  0  0  0  0  0
  -33.1020  -41.4290   -9.6140 N   0  0  0  0  0  4  0  0  0  0  0  0
  -30.8240  -44.4130  -10.2980 C   0  0  0  0  0  0  0  0  0  0  0  0
  -29.0150  -45.9010  -10.9160 C   0  0  0  0  0  0  0  0  0  0  0  0
  -31.2940  -43.0450  -10.0900 C   0  0  0  0  0  0  0  0  0  0  0  0
  -30.5260  -42.0110  -10.3030 N   0  0  0  0  0  0  0  0  0  0  0  0
  -32.0470  -48.0250   -9.9930 C   0  0  0  0  0  0  0  0  0  0  0  0
  -27.4620  -43.4270  -11.3350 O   0  0  0  0  0  0  0  0  0  0  0  0
  -31.1840  -46.8560  -10.2810 C   0  0  0  0  0  0  0  0  0  0  0  0
  -29.8330  -50.0570   -7.4990 S   0  0  0  0  0  0  0  0  0  0  0  0
  -31.6480  -45.5500  -10.0830 C   0  0  0  0  0  0  0  0  0  0  0  0
  -29.4890  -44.5930  -10.7320 C   0  0  0  0  0  0  0  0  0  0  0  0
  -29.8370  -47.0020  -10.6950 C   0  0  0  0  0  0  0  0  0  0  0  0
  -28.6480  -43.4250  -10.9540 C   0  0  0  0  0  0  0  0  0  0  0  0
  -32.7440  -42.8460   -9.6290 C   0  0  0  0  0  0  0  0  0  0  0  0
  -33.4540  -48.1090  -10.0850 C   0  0  0  0  0  0  0  0  0  0  0  0
  -31.6520  -49.2580   -9.4860 C   0  0  0  0  0  0  0  0  0  0  0  0
  -32.8500  -51.3440   -8.8570 C   0  0  0  0  0  0  0  0  0  0  0  0
  -30.3800  -49.8710   -9.1470 C   0  0  0  0  0  0  0  0  0  0  0  0
  -29.4710  -50.4250  -10.0140 C   0  0  0  0  0  0  0  0  0  0  0  0
  -28.3360  -50.9870   -9.3690 C   0  0  0  0  0  0  0  0  0  0  0  0
  -28.3920  -50.8720   -7.9950 C   0  0  0  0  0  0  0  0  0  0  0  0
  -27.2140  -51.6130   -9.9540 C   0  0  0  0  0  0  0  0  0  0  0  0
  -26.1980  -52.0990   -9.1620 C   0  0  0  0  0  0  0  0  0  0  0  0
  -27.3670  -51.3580   -7.1850 C   0  0  0  0  0  0  0  0  0  0  0  0
  -26.2820  -51.9800   -7.7740 C   0  0  0  0  0  0  0  0  0  0  0  0
  -29.6170  -50.4300  -11.4370 C   0  0  0  0  0  0  0  0  0  0  0  0
  -33.9070  -49.2920   -9.7000 N   0  0  0  0  0  0  0  0  0  0  0  0
  -32.7920  -49.9800   -9.3490 N   0  0  0  0  0  0  0  0  0  0  0  0
  -29.7220  -50.4450  -12.5680 N   0  0  0  0  0  0  0  0  0  0  0  0
  -28.6410  -41.3940  -10.9050 H   0  0  0  0  0  0  0  0  0  0  0  0
  -34.0670  -41.3310   -9.3690 H   0  0  0  0  0  0  0  0  0  0  0  0
  -32.9460  -41.0360  -10.5220 H   0  0  0  0  0  0  0  0  0  0  0  0
  -27.9930  -46.0630  -11.2350 H   0  0  0  0  0  0  0  0  0  0  0  0
  -32.6670  -45.3810   -9.7550 H   0  0  0  0  0  0  0  0  0  0  0  0
  -29.4300  -47.9940  -10.8440 H   0  0  0  0  0  0  0  0  0  0  0  0
  -32.8590  -43.2470   -8.6290 H   0  0  0  0  0  0  0  0  0  0  0  0
  -33.4080  -43.3680  -10.3060 H   0  0  0  0  0  0  0  0  0  0  0  0
  -34.1190  -47.3240  -10.4250 H   0  0  0  0  0  0  0  0  0  0  0  0
  -33.8560  -51.5650   -8.5240 H   0  0  0  0  0  0  0  0  0  0  0  0
  -32.1620  -51.4580   -8.0280 H   0  0  0  0  0  0  0  0  0  0  0  0
  -32.5740  -52.0260   -9.6510 H   0  0  0  0  0  0  0  0  0  0  0  0
  -27.1530  -51.7120  -11.0300 H   0  0  0  0  0  0  0  0  0  0  0  0
  -25.3330  -52.5730   -9.6110 H   0  0  0  0  0  0  0  0  0  0  0  0
  -27.4300  -51.2440   -6.1100 H   0  0  0  0  0  0  0  0  0  0  0  0
  -25.4910  -52.3780   -7.1510 H   0  0  0  0  0  0  0  0  0  0  0  0
  -32.5370  -40.9490   -8.9410 H   0  0  0  0  0  0  0  0  0  0  0  0
  1  6  1  0  0  0  0
  2 32  1  0  0  0  0
  2 47  1  0  0  0  0
  3  5  1  0  0  0  0
  3 11  1  0  0  0  0
  4 12  1  0  0  0  0
  4 13  2  0  0  0  0
  5 15  1  0  0  0  0
  6  5  2  0  0  0  0
  7 17  2  0  0  0  0
  8 14  2  0  0  0  0
  9 11  2  0  0  0  0
  9  7  1  0  0  0  0
 11 35  1  0  0  0  0
 12  3  2  0  0  0  0
 13  9  1  0  0  0  0
 14  1  1  0  0  0  0
 14 12  1  0  0  0  0
 15  2  1  0  0  0  0
 15 37  1  0  0  0  0
 16  7  1  0  0  0  0
 16 28  2  0  0  0  0
 17 29  1  0  0  0  0
 17 19  1  0  0  0  0
 18 40  1  0  0  0  0
 18 41  1  0  0  0  0
 19 10  1  0  0  0  0
 20 21  1  0  0  0  0
 20 19  2  0  0  0  0
 21 22  1  0  0  0  0
 22 10  1  0  0  0  0
 22 25  2  0  0  0  0
 23 21  2  0  0  0  0
 23 24  1  0  0  0  0
 24 26  2  0  0  0  0
 25 45  1  0  0  0  0
 26 25  1  0  0  0  0
 26 46  1  0  0  0  0
 27 20  1  0  0  0  0
 28 29  1  0  0  0  0
 29 18  1  0  0  0  0
 30 27  3  0  0  0  0
 31  1  1  0  0  0  0
 33  2  1  0  0  0  0
 34  4  1  0  0  0  0
 36 13  1  0  0  0  0
 38 15  1  0  0  0  0
 39 16  1  0  0  0  0
 42 18  1  0  0  0  0
 43 23  1  0  0  0  0
 44 24  1  0  0  0  0
M  END
