ligand_pdbs\97X.pdb
 OpenBabel06092512053D

 31 35  0  0  0  0  0  0  0  0999 V2000
  -30.4220  -50.4100  -12.4940 N   0  0  0  0  0  0  0  0  0  0  0  0
  -28.5360  -51.0610   -9.5480 C   0  0  0  0  0  0  0  0  0  0  0  0
  -28.1830  -51.1070   -8.1910 C   0  0  0  0  0  0  0  0  0  0  0  0
  -29.0570  -50.5920   -7.2500 C   0  0  0  0  0  0  0  0  0  0  0  0
  -30.6160  -49.9740   -8.9730 C   0  0  0  0  0  0  0  0  0  0  0  0
  -33.1480  -50.1150   -9.2850 N   0  0  0  0  0  0  0  0  0  0  0  0
  -33.2530  -51.4850   -8.8160 C   0  0  0  0  0  0  0  0  0  0  0  0
  -33.6700  -48.1040  -10.0720 C   0  0  0  0  0  0  0  0  0  0  0  0
  -31.3740  -46.9470  -10.1510 C   0  0  0  0  0  0  0  0  0  0  0  0
  -29.8620  -44.6730  -10.6680 C   0  0  0  0  0  0  0  0  0  0  0  0
  -31.1640  -44.5270  -10.2070 C   0  0  0  0  0  0  0  0  0  0  0  0
  -31.9040  -45.6760   -9.9560 C   0  0  0  0  0  0  0  0  0  0  0  0
  -31.9660  -49.3770   -9.3760 C   0  0  0  0  0  0  0  0  0  0  0  0
  -32.2720  -48.1530   -9.8570 C   0  0  0  0  0  0  0  0  0  0  0  0
  -30.0750  -47.0550  -10.6170 C   0  0  0  0  0  0  0  0  0  0  0  0
  -29.3100  -45.9290  -10.8740 C   0  0  0  0  0  0  0  0  0  0  0  0
  -30.1330  -50.4500  -11.4020 C   0  0  0  0  0  0  0  0  0  0  0  0
  -31.6840  -43.1940  -10.0070 C   0  0  0  0  0  0  0  0  0  0  0  0
  -29.0440  -43.4770  -10.9410 C   0  0  0  0  0  0  0  0  0  0  0  0
  -33.1080  -43.0060   -9.4990 C   0  0  0  0  0  0  0  0  0  0  0  0
  -29.7550  -50.4990   -9.9270 C   0  0  0  0  0  0  0  0  0  0  0  0
  -26.9650  -51.6690   -7.8140 C   0  0  0  0  0  0  0  0  0  0  0  0
  -26.1120  -52.1750   -8.7750 C   0  0  0  0  0  0  0  0  0  0  0  0
  -26.4580  -52.1290  -10.1050 C   0  0  0  0  0  0  0  0  0  0  0  0
  -27.6590  -51.5780  -10.4930 C   0  0  0  0  0  0  0  0  0  0  0  0
  -30.2560  -50.0400   -7.6430 C   0  0  0  0  0  0  0  0  0  0  0  0
  -34.2320  -49.3160   -9.7230 N   0  0  0  0  0  0  0  0  0  0  0  0
  -30.9100  -42.0890  -10.2690 N   0  0  0  0  0  0  0  0  0  0  0  0
  -29.5890  -42.2130  -10.7360 N   0  0  0  0  0  0  0  0  0  0  0  0
  -33.5790  -41.6810   -9.8550 N   0  0  0  0  0  0  0  0  0  0  0  0
  -27.7330  -43.6000  -11.3990 O   0  0  0  0  0  0  0  0  0  0  0  0
  1 17  3  0  0  0  0
  2  3  1  0  0  0  0
  3 22  1  0  0  0  0
  3  4  2  0  0  0  0
  5 26  2  0  0  0  0
  6  7  1  0  0  0  0
  8 14  1  0  0  0  0
  8 27  2  0  0  0  0
  9 12  1  0  0  0  0
  9 14  1  0  0  0  0
 10 11  1  0  0  0  0
 11 18  1  0  0  0  0
 11 12  2  0  0  0  0
 13  6  1  0  0  0  0
 13  5  1  0  0  0  0
 14 13  2  0  0  0  0
 15  9  2  0  0  0  0
 16 10  2  0  0  0  0
 16 15  1  0  0  0  0
 17 21  1  0  0  0  0
 18 20  1  0  0  0  0
 19 29  2  0  0  0  0
 19 10  1  0  0  0  0
 21  2  2  0  0  0  0
 21  5  1  0  0  0  0
 23 22  2  0  0  0  0
 24 23  1  0  0  0  0
 25 24  2  0  0  0  0
 25  2  1  0  0  0  0
 26  4  1  0  0  0  0
 27  6  1  0  0  0  0
 28 18  2  0  0  0  0
 29 28  1  0  0  0  0
 30 20  1  0  0  0  0
 31 19  2  0  0  0  0
M  END
