ligand_pdbs\9FG.pdb
 OpenBabel06092512053D

 16 17  0  0  0  0  0  0  0  0999 V2000
    2.4870   26.8780    3.9380 C   0  0  0  0  0  0  0  0  0  0  0  0
   -1.1040   31.2190    4.3730 C   0  0  0  0  0  0  0  0  0  0  0  0
   -2.0520   32.2170    4.1770 C   0  0  0  0  0  0  0  0  0  0  0  0
   -1.6790   33.4030    3.5440 C   0  0  0  0  0  0  0  0  0  0  0  0
    2.6160   25.7380    3.7790 N   0  0  0  0  0  0  0  0  0  0  0  0
   -0.3610   33.5860    3.1160 C   0  0  0  0  0  0  0  0  0  0  0  0
    0.5870   32.5660    3.3180 C   0  0  0  0  0  0  0  0  0  0  0  0
    1.1100   28.9480    3.8410 N   0  0  0  0  0  0  0  0  0  0  0  0
   -0.0730   28.2790    3.3190 C   0  0  0  0  0  0  0  0  0  0  0  0
    1.2530   30.3070    4.1400 C   0  0  0  0  0  0  0  0  0  0  0  0
    0.2330   31.3610    3.9570 C   0  0  0  0  0  0  0  0  0  0  0  0
    2.5590   30.4550    4.5970 C   0  0  0  0  0  0  0  0  0  0  0  0
    3.1930   29.1930    4.5930 C   0  0  0  0  0  0  0  0  0  0  0  0
    2.2830   28.2780    4.1200 C   0  0  0  0  0  0  0  0  0  0  0  0
   -1.5180   30.1070    4.9780 F   0  0  0  0  0  0  0  0  0  0  0  0
   -2.5830   34.4100    3.3310 O   0  0  0  0  0  0  0  0  0  0  0  0
  1 14  1  0  0  0  0
  2 15  1  0  0  0  0
  3  2  1  0  0  0  0
  4  3  2  0  0  0  0
  5  1  3  0  0  0  0
  6  7  2  0  0  0  0
  6  4  1  0  0  0  0
  7 11  1  0  0  0  0
  8 14  1  0  0  0  0
  8 10  1  0  0  0  0
  9  8  1  0  0  0  0
 10 12  2  0  0  0  0
 11 10  1  0  0  0  0
 11  2  2  0  0  0  0
 13 12  1  0  0  0  0
 14 13  2  0  0  0  0
 16  4  1  0  0  0  0
M  END
