ligand_pdbs\AA8.pdb
 OpenBabel06092512053D

 38 37  0  0  1  0  0  0  0  0999 V2000
  -46.6990   67.9640   31.9360 O   0  0  0  0  0  0  0  0  0  0  0  0
  -46.6230   68.7240   32.9190 C   0  0  0  0  0  0  0  0  0  0  0  0
  -47.5890   68.8540   33.6890 O   0  0  0  0  0  0  0  0  0  0  0  0
  -45.3920   69.4830   33.2120 C   0  0  0  0  0  0  0  0  0  0  0  0
  -44.2550   69.3270   32.5040 C   0  0  0  0  0  0  0  0  0  0  0  0
  -44.1760   68.3910   31.3340 C   0  0  0  0  0  0  0  0  0  0  0  0
  -43.0280   70.1290   32.8780 C   0  0  0  0  0  0  0  0  0  0  0  0
  -42.6440   71.0930   31.7560 C   0  0  2  0  0  0  0  0  0  0  0  0
  -41.3130   71.7620   32.0840 C   0  0  0  0  0  0  0  0  0  0  0  0
  -43.7550   72.1210   31.5040 C   0  0  1  0  0  0  0  0  0  0  0  0
  -43.8330   72.9870   32.6440 O   0  0  0  0  0  0  0  0  0  0  0  0
  -43.5590   72.9680   30.2360 C   0  0  2  0  0  0  0  0  0  0  0  0
  -44.6450   74.0370   30.1050 C   0  0  0  0  0  0  0  0  0  0  0  0
  -43.5780   72.1450   28.9750 C   0  0  0  0  0  0  0  0  0  0  0  0
  -44.1360   71.0610   28.9230 O   0  0  0  0  0  0  0  0  0  0  0  0
  -42.9050   72.6730   27.7470 C   0  0  2  0  0  0  0  0  0  0  0  0
  -43.8460   72.5630   26.5540 C   0  0  0  0  0  0  0  0  0  0  0  0
  -41.6590   71.8700   27.4630 C   0  0  0  0  0  0  0  0  0  0  0  0
  -40.4160   72.3330   27.6890 C   0  0  0  0  0  0  0  0  0  0  0  0
  -40.1780   73.7080   28.2530 C   0  0  0  0  0  0  0  0  0  0  0  0
  -39.2830   71.4410   27.3480 C   0  0  0  0  0  0  0  0  0  0  0  0
  -38.0160   71.8310   27.4720 C   0  0  0  0  0  0  0  0  0  0  0  0
  -36.8950   70.8890   27.1020 C   0  0  0  0  0  0  0  0  0  0  0  0
  -35.8270   70.8800   28.1850 C   0  0  1  0  0  0  0  0  0  0  0  0
  -36.3900   70.3120   29.4820 C   0  0  0  0  0  0  0  0  0  0  0  0
  -34.6400   70.0400   27.7520 C   0  0  0  0  0  0  0  0  0  0  0  0
  -33.3580   70.4710   27.7880 C   0  0  0  0  0  0  0  0  0  0  0  0
  -32.2880   69.5150   27.3430 C   0  0  0  0  0  0  0  0  0  0  0  0
  -33.0200   71.8390   28.2750 C   0  0  0  0  0  0  0  0  0  0  0  0
  -31.7880   72.3230   28.4500 C   0  0  0  0  0  0  0  0  0  0  0  0
  -31.7460   73.7450   28.9700 C   0  0  2  0  0  0  0  0  0  0  0  0
  -32.3930   74.5350   27.9640 O   0  0  0  0  0  0  0  0  0  0  0  0
  -30.3650   74.3330   29.2350 C   0  0  0  0  0  0  0  0  0  0  0  0
  -30.4430   75.7280   29.8680 C   0  0  0  0  0  0  0  0  0  0  0  0
  -31.7200   76.5170   29.5890 C   0  0  0  0  0  0  0  0  0  0  0  0
  -31.7810   77.8940   30.2220 C   0  0  0  0  0  0  0  0  0  0  0  0
  -32.8430   78.5360   30.0850 O   0  0  0  0  0  0  0  0  0  0  0  0
  -30.8080   78.3660   30.8490 O   0  0  0  0  0  0  0  0  0  0  0  0
  1  2  2  0  0  0  0
  2  4  1  0  0  0  0
  2  3  1  0  0  0  0
  5  7  1  0  0  0  0
  5  4  2  0  0  0  0
  6  5  1  0  0  0  0
  8  9  1  1  0  0  0
  8  7  1  0  0  0  0
 10  8  1  0  0  0  0
 10 11  1  1  0  0  0
 12 13  1  6  0  0  0
 12 10  1  0  0  0  0
 14 12  1  0  0  0  0
 15 14  2  0  0  0  0
 16 17  1  6  0  0  0
 16 14  1  0  0  0  0
 18 19  2  0  0  0  0
 18 16  1  0  0  0  0
 19 20  1  0  0  0  0
 21 22  2  0  0  0  0
 21 19  1  0  0  0  0
 23 22  1  0  0  0  0
 23 24  1  0  0  0  0
 24 25  1  1  0  0  0
 26 27  1  0  0  0  0
 26 24  1  0  0  0  0
 27 29  2  0  0  0  0
 28 27  1  0  0  0  0
 29 30  1  0  0  0  0
 30 31  1  0  0  0  0
 31 32  1  6  0  0  0
 31 33  1  0  0  0  0
 33 34  1  0  0  0  0
 35 34  2  0  0  0  0
 35 36  1  0  0  0  0
 36 38  1  0  0  0  0
 37 36  2  0  0  0  0
M  END
