ligand_pdbs\ACT.pdb
 OpenBabel06092512053D

  4  3  0  0  0  0  0  0  0  0999 V2000
  -12.2100   -8.6270   96.6980 C   0  0  0  0  0  0  0  0  0  0  0  0
  -12.1200   -7.5510   96.0370 O   0  0  0  0  0  0  0  0  0  0  0  0
  -12.7020   -8.6320   97.8480 O   0  0  0  0  0  0  0  0  0  0  0  0
  -11.7320   -9.9380   96.1150 C   0  0  0  0  0  0  0  0  0  0  0  0
  1  3  1  0  0  0  0
  2  1  2  0  0  0  0
  4  1  1  0  0  0  0
M  END
