ligand_pdbs\B5R.pdb
 OpenBabel06092512053D

 28 29  0  0  1  0  0  0  0  0999 V2000
   29.5630   -0.6500    8.0000 C   0  0  0  0  0  0  0  0  0  0  0  0
   29.5860   -0.8310    9.3790 C   0  0  0  0  0  0  0  0  0  0  0  0
   29.7060   -2.0930    9.8420 F   0  0  0  0  0  0  0  0  0  0  0  0
   29.4810    0.2740   10.2230 C   0  0  0  0  0  0  0  0  0  0  0  0
   29.4480    0.1230   11.9470 Cl  0  0  0  0  0  0  0  0  0  0  0  0
   29.3670    1.5500    9.6770 C   0  0  0  0  0  0  0  0  0  0  0  0
   29.3430    1.7330    8.2980 C   0  0  0  0  0  0  0  0  0  0  0  0
   29.4300    0.6260    7.4590 C   0  0  0  0  0  0  0  0  0  0  0  0
   29.1890    0.7630    6.1290 O   0  0  0  0  0  0  0  0  0  0  0  0
   30.3680    0.9100    5.3260 C   0  0  0  0  0  0  0  0  0  0  0  0
   29.8990    0.8780    3.8800 C   0  0  1  0  0  0  0  0  0  0  0  0
   30.8690    1.5460    3.0700 O   0  0  0  0  0  0  0  0  0  0  0  0
   29.7260   -0.5710    3.4190 C   0  0  0  0  0  0  0  0  0  0  0  0
   28.5650    1.6230    3.7980 C   0  0  0  0  0  0  0  0  0  0  0  0
   27.5010    1.0160    3.9160 O   0  0  0  0  0  0  0  0  0  0  0  0
   28.6810    2.9400    3.6410 N   0  0  0  0  0  0  0  0  0  0  0  0
   27.6780    3.8130    3.5630 C   0  0  0  0  0  0  0  0  0  0  0  0
   26.3380    3.4700    3.7330 C   0  0  0  0  0  0  0  0  0  0  0  0
   28.0190    5.1500    3.3910 C   0  0  0  0  0  0  0  0  0  0  0  0
   27.0230    6.1190    3.3990 C   0  0  0  0  0  0  0  0  0  0  0  0
   25.6890    5.7640    3.5760 C   0  0  0  0  0  0  0  0  0  0  0  0
   24.7430    6.8380    3.5720 C   0  0  0  0  0  0  0  0  0  0  0  0
   24.0010    7.7010    3.5600 N   0  0  0  0  0  0  0  0  0  0  0  0
   25.3200    4.4270    3.7470 C   0  0  0  0  0  0  0  0  0  0  0  0
   23.8660    3.9940    4.0180 C   0  0  0  0  0  0  0  0  0  0  0  0
   22.9710    4.6510    3.2850 F   0  0  0  0  0  0  0  0  0  0  0  0
   23.6550    2.7090    3.7480 F   0  0  0  0  0  0  0  0  0  0  0  0
   23.5610    4.1870    5.2970 F   0  0  0  0  0  0  0  0  0  0  0  0
  1  2  1  0  0  0  0
  2  3  1  0  0  0  0
  2  4  2  0  0  0  0
  4  5  1  0  0  0  0
  6  4  1  0  0  0  0
  7  6  2  0  0  0  0
  8  1  2  0  0  0  0
  8  7  1  0  0  0  0
  9  8  1  0  0  0  0
 10  9  1  0  0  0  0
 11 13  1  6  0  0  0
 11 10  1  0  0  0  0
 12 11  1  0  0  0  0
 14 11  1  0  0  0  0
 14 15  2  0  0  0  0
 16 14  1  0  0  0  0
 17 16  1  0  0  0  0
 17 18  1  0  0  0  0
 18 24  2  0  0  0  0
 19 20  1  0  0  0  0
 19 17  2  0  0  0  0
 20 21  2  0  0  0  0
 21 24  1  0  0  0  0
 22 21  1  0  0  0  0
 23 22  3  0  0  0  0
 24 25  1  0  0  0  0
 25 28  1  0  0  0  0
 26 25  1  0  0  0  0
 27 25  1  0  0  0  0
M  END
