ligand_pdbs\BEF.pdb
 OpenBabel06092512053D

  4  2  0  0  0  0  0  0  0  0999 V2000
   22.9990  -12.2730   10.4480 Be  0  0  0  0  0  0  0  0  0  0  0  0
   22.0580  -12.1850   11.9080 F   0  0  0  0  0  0  0  0  0  0  0  0
   22.8250  -13.4950    9.2270 F   0  0  0  0  0  0  0  0  0  0  0  0
   24.6170  -11.7210   10.4620 F   0  0  0  0  0  0  0  0  0  0  0  0
  1  4  1  0  0  0  0
  3  1  1  0  0  0  0
M  END
