ligand_pdbs\BME.pdb
 OpenBabel06092512053D

  4  3  0  0  0  0  0  0  0  0999 V2000
  -49.9350  -27.1670  -48.9270 C   0  0  0  0  0  0  0  0  0  0  0  0
  -49.2570  -27.7100  -50.1430 C   0  0  0  0  0  0  0  0  0  0  0  0
  -49.0500  -27.0440  -47.8280 O   0  0  0  0  0  0  0  0  0  0  0  0
  -49.5590  -26.6080  -51.5500 S   0  0  0  0  0  0  0  0  0  0  0  0
  1  3  1  0  0  0  0
  2  1  1  0  0  0  0
  4  2  1  0  0  0  0
M  END
