ligand_pdbs\CUX.pdb
 OpenBabel06092512053D

 28 31  0  0  1  0  0  0  0  0999 V2000
  -14.9150 -102.5550   -3.2600 C   0  0  0  0  0  0  0  0  0  0  0  0
  -13.6140 -102.4480   -3.5540 C   0  0  1  0  0  0  0  0  0  0  0  0
  -12.7730 -103.4380   -3.1670 C   0  0  0  0  0  0  0  0  0  0  0  0
  -13.2050 -104.4710   -2.4280 N   0  0  0  0  0  0  0  0  0  0  0  0
  -15.3930 -103.5750   -2.5420 N   0  0  0  0  0  0  0  0  0  0  0  0
  -11.5420 -102.9830   -5.9460 C   0  0  0  0  0  0  0  0  0  0  0  0
  -10.8410 -103.1360   -4.5880 C   0  0  0  0  0  0  0  0  0  0  0  0
  -11.4530 -103.3450   -3.3980 N   0  0  0  0  0  0  0  0  0  0  0  0
  -14.5510 -104.5880   -2.0930 C   0  0  0  0  0  0  0  0  0  0  0  0
  -13.4660 -101.3150   -4.2630 C   0  0  0  0  0  0  0  0  0  0  0  0
  -14.6510 -100.7510   -4.4030 C   0  0  0  0  0  0  0  0  0  0  0  0
  -15.5470 -101.5140   -3.7690 N   0  0  0  0  0  0  0  0  0  0  0  0
  -16.9910 -101.2850   -3.6210 C   0  0  2  0  0  0  0  0  0  0  0  0
  -17.4720 -101.2610   -4.9390 O   0  0  0  0  0  0  0  0  0  0  0  0
  -17.2750  -99.8940   -3.1390 C   0  0  2  0  0  0  0  0  0  0  0  0
  -17.2130  -99.8050   -1.7110 O   0  0  0  0  0  0  0  0  0  0  0  0
  -18.6780  -99.6550   -3.6540 C   0  0  2  0  0  0  0  0  0  0  0  0
  -19.6910 -100.0410   -2.6960 O   0  0  0  0  0  0  0  0  0  0  0  0
  -18.7330 -100.5730   -4.8710 C   0  0  1  0  0  0  0  0  0  0  0  0
  -18.9450  -99.7820   -6.1840 C   0  0  2  0  0  0  0  0  0  0  0  0
  -17.8660  -98.8450   -6.3670 O   0  0  0  0  0  0  0  0  0  0  0  0
  -20.2530  -99.2070   -6.2240 C   0  0  0  0  0  0  0  0  0  0  0  0
  -21.3560 -100.0770   -6.2590 C   0  0  0  0  0  0  0  0  0  0  0  0
  -22.6590  -99.6110   -6.2990 C   0  0  0  0  0  0  0  0  0  0  0  0
  -22.8910  -98.2540   -6.3110 C   0  0  0  0  0  0  0  0  0  0  0  0
  -24.5020  -97.7020   -6.3660 Cl  0  0  0  0  0  0  0  0  0  0  0  0
  -21.8190  -97.3590   -6.2730 C   0  0  0  0  0  0  0  0  0  0  0  0
  -20.4980  -97.8280   -6.2360 C   0  0  0  0  0  0  0  0  0  0  0  0
  1  5  2  0  0  0  0
  2 10  1  6  0  0  0
  2  1  1  0  0  0  0
  2  3  1  0  0  0  0
  3  4  2  0  0  0  0
  4  9  1  0  0  0  0
  5  9  1  0  0  0  0
  6  7  1  0  0  0  0
  7  8  2  0  0  0  0
  8  3  1  0  0  0  0
 11 10  2  0  0  0  0
 11 12  1  0  0  0  0
 12  1  1  0  0  0  0
 13 12  1  6  0  0  0
 13 15  1  0  0  0  0
 14 19  1  0  0  0  0
 14 13  1  0  0  0  0
 15 16  1  1  0  0  0
 17 15  1  0  0  0  0
 17 18  1  1  0  0  0
 19 20  1  6  0  0  0
 19 17  1  0  0  0  0
 20 21  1  1  0  0  0
 22 20  1  0  0  0  0
 23 22  2  0  0  0  0
 24 23  1  0  0  0  0
 25 24  2  0  0  0  0
 25 27  1  0  0  0  0
 26 25  1  0  0  0  0
 27 28  2  0  0  0  0
 28 22  1  0  0  0  0
M  END
