ligand_pdbs\DMS.pdb
 OpenBabel06092512053D

  4  3  0  0  0  0  0  0  0  0999 V2000
  -24.0360  -86.1470   -8.7790 S   0  0  0  0  0  0  0  0  0  0  0  0
  -22.9010  -86.7300   -9.5400 O   0  0  0  0  0  0  0  0  0  0  0  0
  -25.4540  -86.9870   -9.2200 C   0  0  0  0  0  0  0  0  0  0  0  0
  -23.9390  -86.5420   -7.1150 C   0  0  0  0  0  0  0  0  0  0  0  0
  1  4  1  0  0  0  0
  2  1  2  0  0  0  0
  3  1  1  0  0  0  0
M  END
