ligand_pdbs\EDO.pdb
 OpenBabel06092512053D

  4  3  0  0  0  0  0  0  0  0999 V2000
   29.3000  -14.7190   47.8710 C   0  0  0  0  0  0  0  0  0  0  0  0
   30.2010  -13.7840   48.4530 O   0  0  0  0  0  0  0  0  0  0  0  0
   28.2720  -15.1570   48.9040 C   0  0  0  0  0  0  0  0  0  0  0  0
   27.5350  -14.0290   49.3590 O   0  0  0  0  0  0  0  0  0  0  0  0
  1  2  1  0  0  0  0
  1  3  1  0  0  0  0
  3  4  1  0  0  0  0
M  END
