ligand_pdbs\F5J.pdb
 OpenBabel06092512053D

 25 28  0  0  1  0  0  0  0  0999 V2000
  -36.5240  -38.0030   -4.5120 C   0  0  0  0  0  0  0  0  0  0  0  0
  -37.8010  -37.4520   -4.4900 C   0  0  0  0  0  0  0  0  0  0  0  0
  -28.4240  -41.0240   -6.1780 C   0  0  0  0  0  0  0  0  0  0  0  0
  -29.7500  -38.9690   -6.1610 C   0  0  0  0  0  0  0  0  0  0  0  0
  -30.8560  -41.1230   -6.1810 C   0  0  0  0  0  0  0  0  0  0  0  0
  -28.5040  -39.6220   -6.1730 C   0  0  0  0  0  0  0  0  0  0  0  0
  -29.6070  -41.7750   -6.1840 C   0  0  0  0  0  0  0  0  0  0  0  0
  -36.8170  -34.1990   -2.2940 C   0  0  0  0  0  0  0  0  0  0  0  0
  -37.7110  -36.2320   -3.7820 C   0  0  2  0  0  0  0  0  0  0  0  0
  -30.9300  -39.7200   -6.1670 C   0  0  0  0  0  0  0  0  0  0  0  0
  -36.3770  -36.0990   -3.3610 C   0  0  0  0  0  0  0  0  0  0  0  0
  -38.5940  -35.2210   -3.4130 C   0  0  0  0  0  0  0  0  0  0  0  0
  -32.5430  -39.1160   -3.6170 C   0  0  1  0  0  0  0  0  0  0  0  0
  -33.9490  -38.8540   -3.0570 C   0  0  2  0  0  0  0  0  0  0  0  0
  -32.4640  -38.2320   -4.8630 C   0  0  1  0  0  0  0  0  0  0  0  0
  -34.2730  -37.4730   -3.5940 C   0  0  2  0  0  0  0  0  0  0  0  0
  -32.2600  -39.0180   -6.1540 C   0  0  2  0  0  0  0  0  0  0  0  0
  -35.8690  -35.1150   -2.5750 N   0  0  0  0  0  0  0  0  0  0  0  0
  -38.1160  -34.1730   -2.7040 N   0  0  0  0  0  0  0  0  0  0  0  0
  -35.6720  -37.1930   -3.8170 N   0  0  0  0  0  0  0  0  0  0  0  0
  -39.9510  -35.2290   -3.8050 N   0  0  0  0  0  0  0  0  0  0  0  0
  -33.7230  -37.5100   -4.9080 O   0  0  0  0  0  0  0  0  0  0  0  0
  -31.5000  -38.7060   -2.7260 O   0  0  0  0  0  0  0  0  0  0  0  0
  -34.0410  -38.9690   -1.6410 O   0  0  0  0  0  0  0  0  0  0  0  0
  -33.2830  -40.0080   -6.2970 O   0  0  0  0  0  0  0  0  0  0  0  0
  1  2  2  0  0  0  0
  1 20  1  0  0  0  0
  3  6  1  0  0  0  0
  5 10  2  0  0  0  0
  6  4  2  0  0  0  0
  7  5  1  0  0  0  0
  7  3  2  0  0  0  0
  9  2  1  1  0  0  0
  9 12  1  0  0  0  0
  9 11  1  0  0  0  0
 10  4  1  0  0  0  0
 10 17  1  0  0  0  0
 11 18  2  0  0  0  0
 12 19  2  0  0  0  0
 13 14  1  0  0  0  0
 13 23  1  1  0  0  0
 14 24  1  1  0  0  0
 15 17  1  6  0  0  0
 15 13  1  0  0  0  0
 16 20  1  6  0  0  0
 16 14  1  0  0  0  0
 17 25  1  1  0  0  0
 18  8  1  0  0  0  0
 19  8  1  0  0  0  0
 20 11  1  0  0  0  0
 21 12  1  0  0  0  0
 22 15  1  0  0  0  0
 22 16  1  0  0  0  0
M  END
