ligand_pdbs\FME.pdb
 OpenBabel06092512053D

 10  9  0  0  1  0  0  0  0  0999 V2000
  -37.3910   29.3930   -6.2850 N   0  0  0  0  0  0  0  0  0  0  0  0
  -38.5460   29.0830   -5.6800 C   0  0  0  0  0  0  0  0  0  0  0  0
  -38.9960   28.0500   -5.1290 O   0  0  0  0  0  0  0  0  0  0  0  0
  -36.0470   28.8570   -6.8020 C   0  0  1  0  0  0  0  0  0  0  0  0
  -35.0230   27.9790   -6.0350 C   0  0  0  0  0  0  0  0  0  0  0  0
  -34.3320   26.8930   -6.8930 C   0  0  0  0  0  0  0  0  0  0  0  0
  -34.2730   25.2550   -6.2190 S   0  0  0  0  0  0  0  0  0  0  0  0
  -35.5500   24.2890   -6.8690 C   0  0  0  0  0  0  0  0  0  0  0  0
  -36.1690   28.4840   -8.2610 C   0  0  0  0  0  0  0  0  0  0  0  0
  -35.4420   29.0440   -9.0840 O   0  0  0  0  0  0  0  0  0  0  0  0
  1  2  1  0  0  0  0
  2  3  2  0  0  0  0
  4  9  1  6  0  0  0
  4  1  1  0  0  0  0
  4  5  1  0  0  0  0
  6  7  1  0  0  0  0
  6  5  1  0  0  0  0
  8  7  1  0  0  0  0
 10  9  2  0  0  0  0
M  END
