ligand_pdbs\G6U.pdb
 OpenBabel06092512053D

 25 25  0  0  0  0  0  0  0  0999 V2000
  -20.2180  -22.1300  -27.1810 O   0  0  0  0  0  0  0  0  0  0  0  0
  -21.2970  -21.5710  -28.0290 S   0  0  2  0  0  0  0  0  0  0  0  0
  -21.3140  -19.9730  -27.5490 C   0  0  0  0  0  0  0  0  0  0  0  0
  -22.4980  -19.2550  -27.3110 C   0  0  0  0  0  0  0  0  0  0  0  0
  -20.0890  -19.3000  -27.4050 C   0  0  0  0  0  0  0  0  0  0  0  0
  -20.0470  -17.9530  -27.0220 C   0  0  0  0  0  0  0  0  0  0  0  0
  -18.7540  -17.2000  -26.8660 C   0  0  0  0  0  0  0  0  0  0  0  0
  -18.5950  -16.8060  -25.6190 F   0  0  0  0  0  0  0  0  0  0  0  0
  -18.8210  -16.1160  -27.6290 F   0  0  0  0  0  0  0  0  0  0  0  0
  -17.7250  -17.9630  -27.2040 F   0  0  0  0  0  0  0  0  0  0  0  0
  -21.2300  -17.2620  -26.7880 C   0  0  0  0  0  0  0  0  0  0  0  0
  -22.4570  -17.9070  -26.9310 C   0  0  0  0  0  0  0  0  0  0  0  0
  -23.7170  -17.1210  -26.6680 C   0  0  0  0  0  0  0  0  0  0  0  0
  -23.6220  -15.9520  -27.2850 F   0  0  0  0  0  0  0  0  0  0  0  0
  -24.7840  -17.7590  -27.1270 F   0  0  0  0  0  0  0  0  0  0  0  0
  -23.8380  -16.9270  -25.3650 F   0  0  0  0  0  0  0  0  0  0  0  0
  -22.8420  -21.9750  -27.7040 C   0  0  0  0  0  0  0  0  0  0  0  0
  -23.2000  -22.6760  -26.6240 C   0  0  0  0  0  0  0  0  0  0  0  0
  -24.6510  -23.0450  -26.3570 C   0  0  0  0  0  0  0  0  0  0  0  0
  -24.8980  -24.4960  -26.5410 N   0  0  0  0  0  0  0  0  0  0  0  0
  -23.8620  -25.3220  -25.8810 C   0  0  0  0  0  0  0  0  0  0  0  0
  -24.3150  -26.7660  -25.6840 C   0  0  0  0  0  0  0  0  0  0  0  0
  -23.1630  -27.7840  -25.7540 C   0  0  0  0  0  0  0  0  0  0  0  0
  -23.6830  -29.1880  -25.4370 C   0  0  0  0  0  0  0  0  0  0  0  0
  -21.9630  -27.4360  -24.8660 C   0  0  0  0  0  0  0  0  0  0  0  0
  2 17  1  0  0  0  0
  2  3  1  0  0  0  0
  2  1  2  1  0  0  0
  3  5  2  0  0  0  0
  3  4  1  0  0  0  0
  4 12  2  0  0  0  0
  5  6  1  0  0  0  0
  6  7  1  0  0  0  0
  6 11  2  0  0  0  0
  7  8  1  0  0  0  0
  9  7  1  0  0  0  0
 10  7  1  0  0  0  0
 12 11  1  0  0  0  0
 12 13  1  0  0  0  0
 13 16  1  0  0  0  0
 14 13  1  0  0  0  0
 15 13  1  0  0  0  0
 17 18  2  0  0  0  0
 18 19  1  0  0  0  0
 20 19  1  0  0  0  0
 20 21  1  0  0  0  0
 21 22  1  0  0  0  0
 23 22  1  0  0  0  0
 23 24  1  0  0  0  0
 23 25  1  0  0  0  0
M  END
