ligand_pdbs\GLU.pdb
 OpenBabel06092512053D

  9  8  0  0  1  0  0  0  0  0999 V2000
  -43.6230   38.4430  -41.1670 N   0  0  0  0  0  0  0  0  0  0  0  0
  -42.7530   37.9750  -42.2810 C   0  0  2  0  0  0  0  0  0  0  0  0
  -43.4970   36.9160  -43.1040 C   0  0  0  0  0  0  0  0  0  0  0  0
  -44.3550   36.2340  -42.5120 O   0  0  0  0  0  0  0  0  0  0  0  0
  -41.4350   37.4210  -41.7390 C   0  0  0  0  0  0  0  0  0  0  0  0
  -40.5810   38.4620  -41.0400 C   0  0  0  0  0  0  0  0  0  0  0  0
  -39.1710   38.0130  -40.7010 C   0  0  0  0  0  0  0  0  0  0  0  0
  -38.8270   36.8560  -41.0160 O   0  0  0  0  0  0  0  0  0  0  0  0
  -38.4180   38.8210  -40.1250 O   0  0  0  0  0  0  0  0  0  0  0  0
  2  5  1  0  0  0  0
  2  1  1  1  0  0  0
  3  4  2  0  0  0  0
  3  2  1  0  0  0  0
  5  6  1  0  0  0  0
  6  7  1  0  0  0  0
  7  9  1  0  0  0  0
  8  7  2  0  0  0  0
M  END
