ligand_pdbs\ICO.pdb
 OpenBabel06092512053D

 12 13  0  0  0  0  0  0  0  0999 V2000
   16.1120   50.6690   28.6390 C   0  0  0  0  0  0  0  0  0  0  0  0
   15.0590   51.5690   28.7480 C   0  0  0  0  0  0  0  0  0  0  0  0
   14.8730   52.2610   29.9440 C   0  0  0  0  0  0  0  0  0  0  0  0
   15.7380   52.0470   31.0120 C   0  0  0  0  0  0  0  0  0  0  0  0
   16.7890   51.1440   30.8940 C   0  0  0  0  0  0  0  0  0  0  0  0
   16.9780   50.4490   29.7040 C   0  0  0  0  0  0  0  0  0  0  0  0
   17.8790   49.5480   29.3170 N   0  0  0  0  0  0  0  0  0  0  0  0
   17.6380   49.1700   28.0610 C   0  0  0  0  0  0  0  0  0  0  0  0
   16.5710   49.8380   27.6250 C   0  0  0  0  0  0  0  0  0  0  0  0
   15.9470   49.6780   26.2400 C   0  0  0  0  0  0  0  0  0  0  0  0
   16.4640   48.9540   25.4020 O   0  0  0  0  0  0  0  0  0  0  0  0
   14.9030   50.2840   25.9490 O   0  0  0  0  0  0  0  0  0  0  0  0
  1  2  2  0  0  0  0
  1  6  1  0  0  0  0
  2  3  1  0  0  0  0
  3  4  1  0  0  0  0
  5  4  2  0  0  0  0
  6  5  1  0  0  0  0
  7  6  2  0  0  0  0
  8  7  1  0  0  0  0
  9  8  2  0  0  0  0
  9  1  1  0  0  0  0
 10  9  1  0  0  0  0
 11 10  2  0  0  0  0
 12 10  1  0  0  0  0
M  END
