ligand_pdbs\IPH.pdb
 OpenBabel06092512053D

 14 14  0  0  1  0  0  0  0  0999 V2000
   47.7880 -111.8680    7.6480 C   0  0  0  0  0  0  0  0  0  0  0  0
   48.6630 -109.9930    8.5630 C   0  0  0  0  0  0  0  0  0  0  0  0
   47.3950 -112.0550    8.9690 C   0  0  0  0  0  0  0  0  0  0  0  0
   48.0460 -111.0950    7.9780 C   0  0  0  0  0  0  0  0  0  0  0  0
   47.7160 -111.1040    9.9330 C   0  0  1  0  0  0  0  0  0  0  0  0
   47.4100 -112.0420    8.7760 C   0  0  0  0  0  0  0  0  0  0  0  0
   48.4320 -109.9660    9.5750 C   0  0  1  0  0  0  0  0  0  0  0  0
   47.3900 -111.8880   10.1580 C   0  0  0  0  0  0  0  0  0  0  0  0
   48.8260 -109.7790    8.2530 C   0  0  0  0  0  0  0  0  0  0  0  0
   48.0050 -110.7880   10.7440 C   0  0  0  0  0  0  0  0  0  0  0  0
   48.5050 -110.7300    7.2900 C   0  0  0  0  0  0  0  0  0  0  0  0
   48.6410 -109.8430    9.9460 C   0  0  0  0  0  0  0  0  0  0  0  0
   47.4700 -112.8080    6.7000 O   0  0  0  0  0  0  0  0  0  0  0  0
   49.2900 -109.0590    7.7810 O   0  0  0  0  0  0  0  0  0  0  0  0
  1  4  1  0  0  0  0
  1  6  2  0  0  0  0
  3  8  1  0  0  0  0
  5  8  1  6  0  0  0
  5 10  1  0  0  0  0
  7  2  1  6  0  0  0
  7  5  1  0  0  0  0
  7 12  1  0  0  0  0
  9  2  1  0  0  0  0
 11  4  1  0  0  0  0
 11  9  1  0  0  0  0
 12 10  1  0  0  0  0
 13  1  1  0  0  0  0
 14  9  2  0  0  0  0
M  END
