ligand_pdbs\JYX.pdb
 OpenBabel06092512053D

 12 13  0  0  0  0  0  0  0  0999 V2000
   22.7360  -41.4090   -9.1900 C   0  0  0  0  0  0  0  0  0  0  0  0
   21.7800  -41.5390  -10.3370 C   0  0  0  0  0  0  0  0  0  0  0  0
   20.9260  -42.7230  -10.2070 N   0  0  0  0  0  0  0  0  0  0  0  0
   19.6020  -42.7910   -9.8330 C   0  0  0  0  0  0  0  0  0  0  0  0
   18.8760  -41.7140   -9.5260 N   0  0  0  0  0  0  0  0  0  0  0  0
   19.1290  -44.0200   -9.8400 N   0  0  0  0  0  4  0  0  0  0  0  0
   20.2080  -44.8070  -10.2280 C   0  0  0  0  0  0  0  0  0  0  0  0
   20.3280  -46.1820  -10.4000 C   0  0  0  0  0  0  0  0  0  0  0  0
   21.5810  -46.6400  -10.8000 C   0  0  0  0  0  0  0  0  0  0  0  0
   22.6300  -45.7450  -11.0000 C   0  0  0  0  0  0  0  0  0  0  0  0
   22.5250  -44.4210  -10.8290 N   0  0  0  0  0  0  0  0  0  0  0  0
   21.3210  -44.0180  -10.4550 C   0  0  0  0  0  0  0  0  0  0  0  0
  2  3  1  0  0  0  0
  2  1  1  0  0  0  0
  3  4  1  0  0  0  0
  4  5  1  0  0  0  0
  6  4  2  0  0  0  0
  7  6  2  0  0  0  0
  8  7  1  0  0  0  0
  9  8  1  0  0  0  0
 10 11  1  0  0  0  0
 10  9  2  0  0  0  0
 11 12  2  0  0  0  0
 12  7  1  0  0  0  0
 12  3  1  0  0  0  0
M  END
