ligand_pdbs\K85.pdb
 OpenBabel06092512053D

 25 26  0  0  0  0  0  0  0  0999 V2000
  -34.1220   67.6970   27.2290 F   0  0  0  0  0  0  0  0  0  0  0  0
  -33.3640   68.6460   26.7130 C   0  0  0  0  0  0  0  0  0  0  0  0
  -33.3480   68.5090   25.4030 F   0  0  0  0  0  0  0  0  0  0  0  0
  -32.1260   68.5140   27.1480 F   0  0  0  0  0  0  0  0  0  0  0  0
  -33.9160   70.0020   27.0620 C   0  0  0  0  0  0  0  0  0  0  0  0
  -33.0730   71.0020   27.5440 C   0  0  0  0  0  0  0  0  0  0  0  0
  -35.2770   70.2700   26.8930 C   0  0  0  0  0  0  0  0  0  0  0  0
  -35.7910   71.5320   27.2090 C   0  0  0  0  0  0  0  0  0  0  0  0
  -37.1210   71.8420   27.0550 O   0  0  0  0  0  0  0  0  0  0  0  0
  -38.1440   70.8610   27.2190 C   0  0  0  0  0  0  0  0  0  0  0  0
  -34.9410   72.5200   27.6890 C   0  0  0  0  0  0  0  0  0  0  0  0
  -33.5860   72.2560   27.8610 C   0  0  0  0  0  0  0  0  0  0  0  0
  -32.6900   73.3270   28.3730 C   0  0  0  0  0  0  0  0  0  0  0  0
  -33.0150   74.6390   28.4360 N   0  0  0  0  0  0  0  0  0  0  0  0
  -31.9790   75.3330   28.9440 C   0  0  0  0  0  0  0  0  0  0  0  0
  -31.4330   73.1650   28.8400 N   0  0  0  0  0  0  0  0  0  0  0  0
  -31.0180   74.4480   29.1890 N   0  0  0  0  0  0  0  0  0  0  0  0
  -29.6680   74.5720   29.7430 C   0  0  0  0  0  0  0  0  0  0  0  0
  -28.6440   73.9530   28.7960 C   0  0  0  0  0  0  0  0  0  0  0  0
  -28.2430   74.9440   27.7310 C   0  0  0  0  0  0  0  0  0  0  0  0
  -29.0650   75.6890   27.2230 O   0  0  0  0  0  0  0  0  0  0  0  0
  -26.8440   74.9990   27.3370 O   0  0  0  0  0  0  0  0  0  0  0  0
  -26.5970   75.2990   25.9630 C   0  0  0  0  0  0  0  0  0  0  0  0
  -25.2690   74.6660   25.5630 C   0  0  0  0  0  0  0  0  0  0  0  0
  -26.5600   76.8110   25.7720 C   0  0  0  0  0  0  0  0  0  0  0  0
  2  5  1  0  0  0  0
  2  4  1  0  0  0  0
  2  1  1  0  0  0  0
  3  2  1  0  0  0  0
  5  6  1  0  0  0  0
  6 12  2  0  0  0  0
  7  5  2  0  0  0  0
  7  8  1  0  0  0  0
  8 11  2  0  0  0  0
  9  8  1  0  0  0  0
  9 10  1  0  0  0  0
 11 12  1  0  0  0  0
 12 13  1  0  0  0  0
 13 14  2  0  0  0  0
 13 16  2  0  0  0  0
 14 15  1  0  0  0  0
 15 17  1  0  0  0  0
 16 17  1  0  0  0  0
 17 18  1  0  0  0  0
 19 18  1  0  0  0  0
 20 19  1  0  0  0  0
 21 20  2  0  0  0  0
 22 20  1  0  0  0  0
 23 22  1  0  0  0  0
 24 23  1  0  0  0  0
 25 23  1  0  0  0  0
M  END
