ligand_pdbs\LB3.pdb
 OpenBabel06092512053D

 29 33  0  0  1  0  0  0  0  0999 V2000
   14.1240  -37.3330   -4.7980 N   0  0  0  0  0  4  0  0  0  0  0  0
   13.5320  -34.2590   -2.8120 N   0  0  0  0  0  0  0  0  0  0  0  0
   21.6750  -39.4370   -6.3840 C   0  0  0  0  0  0  0  0  0  0  0  0
   20.3600  -39.8530   -6.1890 C   0  0  0  0  0  0  0  0  0  0  0  0
   19.2440  -38.8250   -6.1190 C   0  0  1  0  0  0  0  0  0  0  0  0
   17.9300  -39.3280   -6.7460 C   0  0  0  0  0  0  0  0  0  0  0  0
   16.7100  -39.5870   -5.8800 C   0  0  0  0  0  0  0  0  0  0  0  0
   14.1430  -36.2480   -3.9340 C   0  0  0  0  0  0  0  0  0  0  0  0
   15.4030  -36.0770   -3.3750 C   0  0  0  0  0  0  0  0  0  0  0  0
   17.5190  -37.3430   -3.3820 C   0  0  2  0  0  0  0  0  0  0  0  0
   19.1000  -39.1370   -3.4360 C   0  0  1  0  0  0  0  0  0  0  0  0
   23.9730  -39.9720   -6.4320 F   0  0  0  0  0  0  0  0  0  0  0  0
   23.4320  -42.5840   -6.1680 F   0  0  0  0  0  0  0  0  0  0  0  0
   15.3730  -37.7430   -4.7970 C   0  0  0  0  0  0  0  0  0  0  0  0
   22.6840  -40.3710   -6.3850 C   0  0  0  0  0  0  0  0  0  0  0  0
   18.4080  -37.1230   -4.4620 O   0  0  0  0  0  0  0  0  0  0  0  0
   22.4110  -41.7100   -6.2380 C   0  0  0  0  0  0  0  0  0  0  0  0
   20.1170  -38.8220   -2.4980 O   0  0  0  0  0  0  0  0  0  0  0  0
   13.1700  -35.2770   -3.6260 C   0  0  0  0  0  0  0  0  0  0  0  0
   14.7880  -34.2230   -2.3420 C   0  0  0  0  0  0  0  0  0  0  0  0
   15.7890  -38.4590   -5.8620 N   0  0  0  0  0  0  0  0  0  0  0  0
   11.9360  -35.2710   -4.1430 N   0  0  0  0  0  0  0  0  0  0  0  0
   17.6870  -38.8030   -2.9470 C   0  0  1  0  0  0  0  0  0  0  0  0
   16.1850  -37.0910   -3.8990 N   0  0  0  0  0  0  0  0  0  0  0  0
   15.7880  -35.0830   -2.5600 N   0  0  0  0  0  0  0  0  0  0  0  0
   19.2490  -38.2670   -4.6800 C   0  0  2  0  0  0  0  0  0  0  0  0
   20.0940  -41.2170   -6.0690 C   0  0  0  0  0  0  0  0  0  0  0  0
   21.1200  -42.1500   -6.1000 C   0  0  0  0  0  0  0  0  0  0  0  0
   17.4680  -39.0180   -1.5580 O   0  0  0  0  0  0  0  0  0  0  0  0
  1 14  2  0  0  0  0
  1  8  2  0  0  0  0
  2 20  1  0  0  0  0
  3  4  1  0  0  0  0
  4 27  2  0  0  0  0
  5  4  1  1  0  0  0
  5 26  1  0  0  0  0
  6  5  1  0  0  0  0
  6  7  1  0  0  0  0
  7 21  1  0  0  0  0
  8 19  1  0  0  0  0
  8  9  1  0  0  0  0
  9 25  2  0  0  0  0
 10 16  1  6  0  0  0
 10 23  1  0  0  0  0
 11 23  1  0  0  0  0
 11 18  1  1  0  0  0
 12 15  1  0  0  0  0
 14 24  1  0  0  0  0
 15  3  2  0  0  0  0
 15 17  1  0  0  0  0
 17 13  1  0  0  0  0
 17 28  2  0  0  0  0
 19  2  2  0  0  0  0
 21 14  2  0  0  0  0
 22 19  1  0  0  0  0
 23 29  1  1  0  0  0
 24 10  1  0  0  0  0
 24  9  1  0  0  0  0
 25 20  1  0  0  0  0
 26 16  1  6  0  0  0
 26 11  1  0  0  0  0
 28 27  1  0  0  0  0
M  END
