ligand_pdbs\MES.pdb
 OpenBabel06092512053D

 12 12  0  0  0  0  0  0  0  0999 V2000
    0.1870    3.7550   -0.9570 O   0  0  0  0  0  0  0  0  0  0  0  0
    0.6340    2.6410   -1.7730 C   0  0  0  0  0  0  0  0  0  0  0  0
    1.4930    1.7450   -0.9810 C   0  0  0  0  0  0  0  0  0  0  0  0
    0.7000    1.1950    0.1590 N   0  0  0  0  0  0  0  0  0  0  0  0
    0.2010    2.3060    1.0110 C   0  0  0  0  0  0  0  0  0  0  0  0
   -0.6320    3.2660    0.1350 C   0  0  0  0  0  0  0  0  0  0  0  0
    1.5100    0.2780    1.0040 C   0  0  0  0  0  0  0  0  0  0  0  0
    2.0640   -0.9120    0.1960 C   0  0  0  0  0  0  0  0  0  0  0  0
    3.0280   -1.9990    1.2850 S   0  0  0  0  0  0  0  0  0  0  0  0
    2.1660   -2.5080    2.3400 O   0  0  0  0  0  0  0  0  0  0  0  0
    4.1130   -1.2380    1.8820 O   0  0  0  0  0  0  0  0  0  0  0  0
    3.5600   -3.1130    0.5170 O   0  0  0  0  0  0  0  0  0  0  0  0
  1  6  1  0  0  0  0
  2  3  1  0  0  0  0
  2  1  1  0  0  0  0
  3  4  1  0  0  0  0
  4  7  1  0  0  0  0
  4  5  1  0  0  0  0
  6  5  1  0  0  0  0
  8  7  1  0  0  0  0
  8  9  1  0  0  0  0
  9 11  1  0  0  0  0
  9 10  1  0  0  0  0
 12  9  1  0  0  0  0
M  END
