ligand_pdbs\N59.pdb
 OpenBabel06092512053D

 33 36  0  0  0  0  0  0  0  0999 V2000
   24.7510   12.0050  -31.1860 F   0  0  0  0  0  0  0  0  0  0  0  0
   23.7190   11.4000  -31.7900 C   0  0  0  0  0  0  0  0  0  0  0  0
   23.9430   10.2830  -32.5960 C   0  0  0  0  0  0  0  0  0  0  0  0
   22.8660    9.6620  -33.2200 C   0  0  0  0  0  0  0  0  0  0  0  0
   21.5750   10.1590  -33.0280 C   0  0  0  0  0  0  0  0  0  0  0  0
   22.4290   11.8980  -31.6010 C   0  0  0  0  0  0  0  0  0  0  0  0
   21.3390   11.2820  -32.2230 C   0  0  0  0  0  0  0  0  0  0  0  0
   19.8420   11.8610  -32.0030 S   0  0  0  0  0  0  0  0  0  0  0  0
   19.6420   13.0290  -32.8140 O   0  0  0  0  0  0  0  0  0  0  0  0
   18.8110   10.9320  -32.3600 O   0  0  0  0  0  0  0  0  0  0  0  0
   19.6200   12.2430  -30.4550 N   0  0  0  0  0  0  0  0  0  0  0  0
   19.5120   11.3670  -29.4110 C   0  0  0  0  0  0  0  0  0  0  0  0
   19.5550    9.9710  -29.5250 C   0  0  0  0  0  0  0  0  0  0  0  0
   19.4340    9.1680  -28.3800 C   0  0  0  0  0  0  0  0  0  0  0  0
   19.4720    7.6680  -28.4450 C   0  0  0  0  0  0  0  0  0  0  0  0
   20.0040    7.0750  -29.4200 O   0  0  0  0  0  0  0  0  0  0  0  0
   18.9550    7.0520  -27.4830 O   0  0  0  0  0  0  0  0  0  0  0  0
   19.2630    9.7410  -27.1240 C   0  0  0  0  0  0  0  0  0  0  0  0
   19.2170   11.1090  -27.0100 C   0  0  0  0  0  0  0  0  0  0  0  0
   19.3470   11.9040  -28.1380 C   0  0  0  0  0  0  0  0  0  0  0  0
   19.2880   13.2690  -27.9380 N   0  0  0  0  0  0  0  0  0  0  0  0
   20.5190   14.0550  -27.9460 C   0  0  0  0  0  0  0  0  0  0  0  0
   20.0730   15.4060  -28.4590 C   0  0  0  0  0  0  0  0  0  0  0  0
   17.9960   13.8830  -27.7090 C   0  0  0  0  0  0  0  0  0  0  0  0
   18.2540   14.9910  -26.7300 C   0  0  0  0  0  0  0  0  0  0  0  0
   19.1490   15.9000  -27.4430 N   0  0  0  0  0  0  0  0  0  0  0  0
   19.1310   17.2460  -27.1810 C   0  0  0  0  0  0  0  0  0  0  0  0
   17.9350   17.8460  -26.8260 C   0  0  0  0  0  0  0  0  0  0  0  0
   17.9130   19.1990  -26.5690 C   0  0  0  0  0  0  0  0  0  0  0  0
   16.3290   19.9150  -26.0890 Cl  0  0  0  0  0  0  0  0  0  0  0  0
   19.0950   19.9440  -26.6840 C   0  0  0  0  0  0  0  0  0  0  0  0
   20.2970   19.3350  -27.0540 C   0  0  0  0  0  0  0  0  0  0  0  0
   20.3140   17.9770  -27.2930 C   0  0  0  0  0  0  0  0  0  0  0  0
  2  6  1  0  0  0  0
  2  1  1  0  0  0  0
  3  2  2  0  0  0  0
  4  5  2  0  0  0  0
  4  3  1  0  0  0  0
  5  7  1  0  0  0  0
  7  8  1  0  0  0  0
  7  6  2  0  0  0  0
  8 11  1  0  0  0  0
  9  8  2  0  0  0  0
 10  8  2  0  0  0  0
 11 12  1  0  0  0  0
 12 20  1  0  0  0  0
 13 12  2  0  0  0  0
 13 14  1  0  0  0  0
 14 18  2  0  0  0  0
 15 14  1  0  0  0  0
 15 17  1  0  0  0  0
 16 15  2  0  0  0  0
 18 19  1  0  0  0  0
 20 21  1  0  0  0  0
 20 19  2  0  0  0  0
 21 24  1  0  0  0  0
 22 21  1  0  0  0  0
 23 22  1  0  0  0  0
 23 26  1  0  0  0  0
 24 25  1  0  0  0  0
 26 27  1  0  0  0  0
 26 25  1  0  0  0  0
 27 28  1  0  0  0  0
 28 29  2  0  0  0  0
 29 30  1  0  0  0  0
 31 29  1  0  0  0  0
 32 31  2  0  0  0  0
 33 27  2  0  0  0  0
 33 32  1  0  0  0  0
M  END
