ligand_pdbs\PJ0.pdb
 OpenBabel06092512053D

 12 13  0  0  0  0  0  0  0  0999 V2000
  -29.1610  -40.3270   -9.2790 C   0  0  0  0  0  0  0  0  0  0  0  0
  -29.6290  -41.6760   -9.7350 C   0  0  0  0  0  0  0  0  0  0  0  0
  -28.7270  -42.5780  -10.1880 C   0  0  0  0  0  0  0  0  0  0  0  0
  -29.2040  -43.8290  -10.6080 C   0  0  0  0  0  0  0  0  0  0  0  0
  -28.7940  -45.9210  -11.4570 C   0  0  0  0  0  0  0  0  0  0  0  0
  -30.1400  -46.2480  -11.4180 C   0  0  0  0  0  0  0  0  0  0  0  0
  -31.0490  -45.3450  -10.9610 C   0  0  0  0  0  0  0  0  0  0  0  0
  -31.4240  -43.1720  -10.0840 N   0  0  0  0  0  4  0  0  0  0  0  0
  -30.9870  -42.0010   -9.6920 C   0  0  0  0  0  0  0  0  0  0  0  0
  -28.3680  -44.7530  -11.0620 N   0  0  0  0  0  0  0  0  0  0  0  0
  -30.5840  -44.0930  -10.5410 C   0  0  0  0  0  0  0  0  0  0  0  0
  -31.8930  -41.0670   -9.2230 N   0  0  0  0  0  0  0  0  0  0  0  0
  2  9  1  0  0  0  0
  2  1  1  0  0  0  0
  3  2  2  0  0  0  0
  4 11  1  0  0  0  0
  4  3  1  0  0  0  0
  5  6  2  0  0  0  0
  5 10  1  0  0  0  0
  6  7  1  0  0  0  0
  7 11  1  0  0  0  0
  8  9  2  0  0  0  0
  9 12  1  0  0  0  0
 10  4  2  0  0  0  0
 11  8  2  0  0  0  0
M  END
