ligand_pdbs/PO4_A_1919 .pdb
 OpenBabel05122511023D

  5  4  0  0  0  0  0  0  0  0999 V2000
   -3.7260   39.3970  -10.5790 P   0  0  0  0  0  0  0  0  0  0  0  0
   -3.6560   40.8990  -10.4220 O   0  0  0  0  0  0  0  0  0  0  0  0
   -2.8480   38.7300   -9.5550 O   0  0  0  0  0  0  0  0  0  0  0  0
   -5.1590   38.9530  -10.3870 O   0  0  0  0  0  0  0  0  0  0  0  0
   -3.2600   39.0180  -11.9660 O   0  0  0  0  0  0  0  0  0  0  0  0
  1  2  1  0  0  0  0
  1  4  1  0  0  0  0
  1  3  1  0  0  0  0
  5  1  2  0  0  0  0
M  END
