ligand_pdbs\PUI.pdb
 OpenBabel06092512053D

 12 13  0  0  0  0  0  0  0  0999 V2000
  -26.9570  -41.9500  -10.3540 C   0  0  0  0  0  0  0  0  0  0  0  0
  -28.4030  -42.3450  -10.2060 C   0  0  0  0  0  0  0  0  0  0  0  0
  -29.3150  -41.3910   -9.8490 C   0  0  0  0  0  0  0  0  0  0  0  0
  -30.6720  -41.7290   -9.7060 C   0  0  0  0  0  0  0  0  0  0  0  0
  -30.2480  -43.9550  -10.2710 C   0  0  0  0  0  0  0  0  0  0  0  0
  -30.7070  -45.2790  -10.4940 C   0  0  0  0  0  0  0  0  0  0  0  0
  -28.8550  -43.6750  -10.4320 C   0  0  0  0  0  0  0  0  0  0  0  0
  -31.5690  -40.7370   -9.3420 N   0  0  0  0  0  0  0  0  0  0  0  0
  -31.0880  -42.9690   -9.9180 N   0  0  0  0  0  4  0  0  0  0  0  0
  -29.7940  -46.2400  -10.8520 C   0  0  0  0  0  0  0  0  0  0  0  0
  -28.4450  -45.8970  -10.9900 C   0  0  0  0  0  0  0  0  0  0  0  0
  -28.0190  -44.6660  -10.7860 N   0  0  0  0  0  0  0  0  0  0  0  0
  1  2  1  0  0  0  0
  2  3  2  0  0  0  0
  3  4  1  0  0  0  0
  4  8  1  0  0  0  0
  5  9  2  0  0  0  0
  6  5  1  0  0  0  0
  7  5  1  0  0  0  0
  7  2  1  0  0  0  0
  9  4  2  0  0  0  0
 10  6  1  0  0  0  0
 11 10  2  0  0  0  0
 11 12  1  0  0  0  0
 12  7  2  0  0  0  0
M  END
