ligand_pdbs\PWX.pdb
 OpenBabel06092512053D

 12 13  0  0  0  0  0  0  0  0999 V2000
  -27.4850  -42.9890  -10.1960 C   0  0  0  0  0  0  0  0  0  0  0  0
  -28.0170  -41.7270   -9.8130 N   0  0  0  0  0  0  0  0  0  0  0  0
  -28.5580  -43.8620  -10.1720 C   0  0  0  0  0  0  0  0  0  0  0  0
  -26.0800  -44.8270  -10.8770 C   0  0  0  0  0  0  0  0  0  0  0  0
  -27.1880  -45.6940  -10.8460 C   0  0  0  0  0  0  0  0  0  0  0  0
  -27.2780  -40.4590   -9.6850 C   0  0  0  0  0  0  0  0  0  0  0  0
  -26.2050  -43.4730  -10.5590 C   0  0  0  0  0  0  0  0  0  0  0  0
  -28.4440  -45.2160  -10.4910 C   0  0  0  0  0  0  0  0  0  0  0  0
  -29.6720  -43.1390   -9.7900 N   0  0  0  0  0  4  0  0  0  0  0  0
  -29.3150  -41.8920   -9.5890 C   0  0  0  0  0  0  0  0  0  0  0  0
  -30.1520  -40.9590   -9.2190 N   0  0  0  0  0  0  0  0  0  0  0  0
  -24.7800  -42.4910  -10.6290 Cl  0  0  0  0  0  0  0  0  0  0  0  0
  1  3  1  0  0  0  0
  1  2  1  0  0  0  0
  2  6  1  0  0  0  0
  2 10  1  0  0  0  0
  3  9  2  0  0  0  0
  4  5  1  0  0  0  0
  4  7  1  0  0  0  0
  5  8  2  0  0  0  0
  7  1  2  0  0  0  0
  8  3  1  0  0  0  0
  9 10  2  0  0  0  0
 10 11  1  0  0  0  0
 12  7  1  0  0  0  0
M  END
