ligand_pdbs\Q73.pdb
 OpenBabel06092512053D

 35 35  0  0  1  0  0  0  0  0999 V2000
   25.4160   24.2320  -27.8440 O   0  0  0  0  0  0  0  0  0  0  0  0
   24.3780   24.7280  -27.3510 C   0  0  0  0  0  0  0  0  0  0  0  0
   24.2360   25.9550  -27.1360 O   0  0  0  0  0  0  0  0  0  0  0  0
   23.2340   23.8060  -27.0070 C   0  0  0  0  0  0  0  0  0  0  0  0
   22.6070   23.3380  -28.3250 C   0  0  1  0  0  0  0  0  0  0  0  0
   23.3260   22.1760  -28.8830 N   0  0  0  0  0  0  0  0  0  0  0  0
   21.1320   22.9990  -28.1440 C   0  0  0  0  0  0  0  0  0  0  0  0
   20.8710   21.5090  -28.2480 C   0  0  1  0  0  0  0  0  0  0  0  0
   21.8750   20.7920  -27.5020 O   0  0  0  0  0  0  0  0  0  0  0  0
   19.4770   21.2900  -27.7040 C   0  0  0  0  0  0  0  0  0  0  0  0
   19.0870   20.0730  -27.4460 C   0  0  0  0  0  0  0  0  0  0  0  0
   17.7340   19.7320  -26.9480 C   0  0  0  0  0  0  0  0  0  0  0  0
   16.7100   20.6800  -26.3380 C   0  0  0  0  0  0  0  0  0  0  0  0
   17.4270   18.4590  -27.1280 C   0  0  0  0  0  0  0  0  0  0  0  0
   18.4560   17.5440  -27.7450 C   0  0  2  0  0  0  0  0  0  0  0  0
   17.8090   16.8820  -28.9500 C   0  0  0  0  0  0  0  0  0  0  0  0
   18.9910   16.5950  -26.6800 C   0  0  0  0  0  0  0  0  0  0  0  0
   19.9390   15.6240  -27.3420 C   0  0  0  0  0  0  0  0  0  0  0  0
   21.3640   16.0420  -27.5980 C   0  0  0  0  0  0  0  0  0  0  0  0
   19.4830   14.4170  -27.7110 C   0  0  0  0  0  0  0  0  0  0  0  0
   20.3800   13.4990  -28.3610 C   0  0  0  0  0  0  0  0  0  0  0  0
   19.9650   12.3090  -28.7300 C   0  0  0  0  0  0  0  0  0  0  0  0
   20.9160   11.3670  -29.4260 C   0  0  2  0  0  0  0  0  0  0  0  0
   22.3030   11.8440  -29.2750 N   0  0  0  0  0  0  0  0  0  0  0  0
   20.5240   11.2380  -30.8960 C   0  0  1  0  0  0  0  0  0  0  0  0
   19.2540   10.5970  -30.9220 O   0  0  0  0  0  0  0  0  0  0  0  0
   18.8770   10.2300  -32.2460 C   0  0  1  0  0  0  0  0  0  0  0  0
   17.6550    9.3480  -32.1940 C   0  0  0  0  0  0  0  0  0  0  0  0
   17.0920    9.0920  -31.0150 C   0  0  0  0  0  0  0  0  0  0  0  0
   15.8720    8.2130  -30.9340 C   0  0  0  0  0  0  0  0  0  0  0  0
   18.6280   11.5210  -33.0300 C   0  0  1  0  0  0  0  0  0  0  0  0
   17.4700   12.3290  -32.4350 C   0  0  0  0  0  0  0  0  0  0  0  0
   19.9160   12.3480  -33.0560 C   0  0  2  0  0  0  0  0  0  0  0  0
   20.9020   11.6690  -33.8390 O   0  0  0  0  0  0  0  0  0  0  0  0
   20.4810   12.5760  -31.6580 C   0  0  0  0  0  0  0  0  0  0  0  0
  1  2  2  0  0  0  0
  2  3  1  0  0  0  0
  2  4  1  0  0  0  0
  5  6  1  1  0  0  0
  5  7  1  0  0  0  0
  5  4  1  0  0  0  0
  8  7  1  0  0  0  0
  8 10  1  0  0  0  0
  8  9  1  1  0  0  0
 10 11  2  0  0  0  0
 11 12  1  0  0  0  0
 12 13  1  0  0  0  0
 14 12  2  0  0  0  0
 15 16  1  6  0  0  0
 15 14  1  0  0  0  0
 15 17  1  0  0  0  0
 18 17  1  0  0  0  0
 19 18  1  0  0  0  0
 20 18  2  0  0  0  0
 21 20  1  0  0  0  0
 22 21  2  0  0  0  0
 23 24  1  6  0  0  0
 23 22  1  0  0  0  0
 25 23  1  1  0  0  0
 26 25  1  0  0  0  0
 27 28  1  1  0  0  0
 27 26  1  0  0  0  0
 28 29  2  0  0  0  0
 29 30  1  0  0  0  0
 31 32  1  1  0  0  0
 31 27  1  0  0  0  0
 33 34  1  6  0  0  0
 33 31  1  0  0  0  0
 33 35  1  0  0  0  0
 35 25  1  0  0  0  0
M  END
