ligand_pdbs\R18.pdb
 OpenBabel06092512053D

 21 24  0  0  1  0  0  0  0  0999 V2000
    0.4140   28.0700    4.1030 C   0  0  0  0  0  0  0  0  0  0  0  0
    1.1950   26.9990    4.8320 C   0  0  0  0  0  0  0  0  0  0  0  0
    2.6610   27.1400    4.5320 C   0  0  0  0  0  0  0  0  0  0  0  0
    3.1740   28.4570    4.7940 C   0  0  0  0  0  0  0  0  0  0  0  0
    2.3670   29.5530    4.7800 C   0  0  0  0  0  0  0  0  0  0  0  0
    2.9730   30.9060    5.1160 C   0  0  0  0  0  0  0  0  0  0  0  0
    2.2070   32.0300    4.4570 C   0  0  0  0  0  0  0  0  0  0  0  0
    0.7330   31.9620    4.8980 C   0  0  2  0  0  0  0  0  0  0  0  0
    0.1240   30.5970    4.5140 C   0  0  0  0  0  0  0  0  0  0  0  0
    0.9120   29.4800    4.4760 C   0  0  0  0  0  0  0  0  0  0  0  0
   -1.3160   30.5830    4.2510 C   0  0  0  0  0  0  0  0  0  0  0  0
   -2.1020   31.6750    4.3100 C   0  0  0  0  0  0  0  0  0  0  0  0
   -1.5350   33.0390    4.6640 C   0  0  1  0  0  0  0  0  0  0  0  0
   -0.0560   33.0660    4.2610 C   0  0  1  0  0  0  0  0  0  0  0  0
    0.3870   34.5090    4.5720 C   0  0  0  0  0  0  0  0  0  0  0  0
   -0.8990   35.2990    4.3110 C   0  0  0  0  0  0  0  0  0  0  0  0
   -2.0010   34.2820    3.9000 C   0  0  1  0  0  0  0  0  0  0  0  0
   -1.7250   33.2280    6.1890 C   0  0  0  0  0  0  0  0  0  0  0  0
   -2.0340   34.0500    2.4120 C   0  0  0  0  0  0  0  0  0  0  0  0
    3.3750   26.2120    4.1620 O   0  0  0  0  0  0  0  0  0  0  0  0
   -3.2570   34.7970    4.3450 O   0  0  0  0  0  0  0  0  0  0  0  0
  1 10  1  0  0  0  0
  1  2  1  0  0  0  0
  3  4  1  0  0  0  0
  3  2  1  0  0  0  0
  5  4  2  0  0  0  0
  5  6  1  0  0  0  0
  7  6  1  0  0  0  0
  8  7  1  6  0  0  0
  9  8  1  0  0  0  0
 10  9  2  0  0  0  0
 10  5  1  0  0  0  0
 11 12  2  0  0  0  0
 11  9  1  0  0  0  0
 12 13  1  0  0  0  0
 13 18  1  1  0  0  0
 14 15  1  1  0  0  0
 14 13  1  0  0  0  0
 14  8  1  0  0  0  0
 16 15  1  0  0  0  0
 17 19  1  6  0  0  0
 17 16  1  0  0  0  0
 17 21  1  0  0  0  0
 17 13  1  0  0  0  0
 20  3  2  0  0  0  0
M  END
