ligand_pdbs\RB1.pdb
 OpenBabel06092512053D

 22 24  0  0  1  0  0  0  0  0999 V2000
  -37.4290  -11.5860   18.0660 C   0  0  0  0  0  0  0  0  0  0  0  0
  -37.3320  -10.2990   17.2410 C   0  0  0  0  0  0  0  0  0  0  0  0
  -36.8680  -10.6270   15.8200 C   0  0  0  0  0  0  0  0  0  0  0  0
  -38.6980   -9.6050   17.2020 C   0  0  0  0  0  0  0  0  0  0  0  0
  -36.3440   -9.3910   17.8880 N   0  0  0  0  0  0  0  0  0  0  0  0
  -35.7330   -9.6750   18.9210 N   0  0  0  0  0  0  0  0  0  0  0  0
  -35.9980   -8.1920   17.4170 C   0  0  0  0  0  0  0  0  0  0  0  0
  -36.3620   -7.4630   16.3500 N   0  0  0  0  0  0  0  0  0  0  0  0
  -35.8290   -6.2660   16.1430 C   0  0  0  0  0  0  0  0  0  0  0  0
  -34.9270   -5.7650   16.9700 N   0  0  0  0  0  0  0  0  0  0  0  0
  -34.5140   -6.4410   18.0510 C   0  0  0  0  0  0  0  0  0  0  0  0
  -33.6130   -5.9170   18.8760 N   0  0  0  0  0  0  0  0  0  0  0  0
  -35.0530   -7.6960   18.3060 C   0  0  2  0  0  0  0  0  0  0  0  0
  -34.9120   -8.6840   19.2710 C   0  0  0  0  0  0  0  0  0  0  0  0
  -33.9780   -8.6690   20.4860 C   0  0  0  0  0  0  0  0  0  0  0  0
  -34.5730   -9.4920   21.6250 C   0  0  0  0  0  0  0  0  0  0  0  0
  -34.4150  -10.8770   21.6560 C   0  0  0  0  0  0  0  0  0  0  0  0
  -35.2690   -8.8540   22.6470 C   0  0  0  0  0  0  0  0  0  0  0  0
  -35.7960   -9.5930   23.7030 C   0  0  0  0  0  0  0  0  0  0  0  0
  -35.6330  -10.9750   23.7370 C   0  0  0  0  0  0  0  0  0  0  0  0
  -34.9480  -11.6170   22.7110 C   0  0  0  0  0  0  0  0  0  0  0  0
  -34.8000  -12.9700   22.7350 O   0  0  0  0  0  0  0  0  0  0  0  0
  2  5  1  0  0  0  0
  2  1  1  0  0  0  0
  3  2  1  0  0  0  0
  4  2  1  0  0  0  0
  5  6  1  0  0  0  0
  6 14  2  0  0  0  0
  7  5  1  0  0  0  0
  8  7  2  0  0  0  0
  9  8  1  0  0  0  0
  9 10  1  0  0  0  0
 10 11  2  0  0  0  0
 11 13  1  0  0  0  0
 11 12  1  0  0  0  0
 13  7  1  6  0  0  0
 13 14  1  0  0  0  0
 14 15  1  0  0  0  0
 15 16  1  0  0  0  0
 16 17  2  0  0  0  0
 16 18  1  0  0  0  0
 17 21  1  0  0  0  0
 18 19  2  0  0  0  0
 19 20  1  0  0  0  0
 21 22  1  0  0  0  0
 21 20  2  0  0  0  0
M  END
