ligand_pdbs\SAH.pdb
 OpenBabel06092512053D

 26 28  0  0  1  0  0  0  0  0999 V2000
   23.6600  -36.2850   -6.9690 N   0  0  0  0  0  0  0  0  0  0  0  0
   24.1320  -37.5550   -6.3340 C   0  0  1  0  0  0  0  0  0  0  0  0
   22.9570  -38.4500   -5.9250 C   0  0  0  0  0  0  0  0  0  0  0  0
   21.9560  -38.7480   -7.0440 C   0  0  0  0  0  0  0  0  0  0  0  0
   20.7930  -39.9570   -6.4900 S   0  0  0  0  0  0  0  0  0  0  0  0
   25.0580  -38.2940   -7.2610 C   0  0  0  0  0  0  0  0  0  0  0  0
   25.0010  -38.1460   -8.4850 O   0  0  0  0  0  0  0  0  0  0  0  0
   25.8970  -39.0730   -6.8050 O   0  0  0  0  0  0  0  0  0  0  0  0
   19.3360  -38.9800   -6.2950 C   0  0  0  0  0  0  0  0  0  0  0  0
   19.3750  -38.1940   -4.9850 C   0  0  1  0  0  0  0  0  0  0  0  0
   18.3270  -37.2180   -4.9530 O   0  0  0  0  0  0  0  0  0  0  0  0
   19.1930  -39.0920   -3.7730 C   0  0  1  0  0  0  0  0  0  0  0  0
   20.2510  -38.8180   -2.8510 O   0  0  0  0  0  0  0  0  0  0  0  0
   17.8490  -38.6980   -3.1900 C   0  0  1  0  0  0  0  0  0  0  0  0
   17.8690  -38.7000   -1.7620 O   0  0  0  0  0  0  0  0  0  0  0  0
   17.6050  -37.3000   -3.7240 C   0  0  2  0  0  0  0  0  0  0  0  0
   16.1660  -37.0440   -3.9600 N   0  0  0  0  0  0  0  0  0  0  0  0
   15.3330  -37.7970   -4.7010 C   0  0  0  0  0  0  0  0  0  0  0  0
   14.0800  -37.2750   -4.7130 N   0  0  0  0  0  0  0  0  0  0  0  0
   14.1000  -36.1570   -3.9670 C   0  0  0  0  0  0  0  0  0  0  0  0
   13.1200  -35.1210   -3.5590 C   0  0  0  0  0  0  0  0  0  0  0  0
   11.8320  -35.1790   -3.9630 N   0  0  0  0  0  0  0  0  0  0  0  0
   13.5540  -34.1100   -2.7700 N   0  0  0  0  0  0  0  0  0  0  0  0
   14.8360  -34.0360   -2.3540 C   0  0  0  0  0  0  0  0  0  0  0  0
   15.7770  -34.9460   -2.6840 N   0  0  0  0  0  0  0  0  0  0  0  0
   15.4800  -36.0090   -3.4740 C   0  0  0  0  0  0  0  0  0  0  0  0
  2  1  1  6  0  0  0
  2  3  1  0  0  0  0
  4  5  1  0  0  0  0
  4  3  1  0  0  0  0
  5  9  1  0  0  0  0
  6  8  1  0  0  0  0
  6  2  1  0  0  0  0
  7  6  2  0  0  0  0
 10  9  1  6  0  0  0
 10 11  1  0  0  0  0
 10 12  1  0  0  0  0
 11 16  1  0  0  0  0
 12 14  1  0  0  0  0
 12 13  1  1  0  0  0
 14 15  1  1  0  0  0
 16 17  1  6  0  0  0
 16 14  1  0  0  0  0
 17 26  1  0  0  0  0
 18 17  1  0  0  0  0
 19 18  1  0  0  0  0
 19 20  2  0  0  0  0
 20 21  1  0  0  0  0
 20 26  1  0  0  0  0
 21 23  2  0  0  0  0
 22 21  1  0  0  0  0
 23 24  1  0  0  0  0
 25 24  1  0  0  0  0
 26 25  2  0  0  0  0
M  END
