ligand_pdbs\SNC.pdb
 OpenBabel06092512053D

  8  7  0  0  1  0  0  0  0  0999 V2000
  -59.0400    7.1030   43.2200 N   0  0  0  0  0  0  0  0  0  0  0  0
  -59.9900    6.9700   42.0840 C   0  0  1  0  0  0  0  0  0  0  0  0
  -60.9560    5.7460   42.3640 C   0  0  0  0  0  0  0  0  0  0  0  0
  -60.5960    4.2550   41.2890 S   0  0  0  0  0  0  0  0  0  0  0  0
  -60.0790    2.9630   42.1660 N   0  0  0  0  0  0  0  0  0  0  0  0
  -60.3770    1.8280   41.7690 O   0  0  0  0  0  0  0  0  0  0  0  0
  -60.6130    8.3460   41.9710 C   0  0  0  0  0  0  0  0  0  0  0  0
  -60.8200    9.0490   42.9960 O   0  0  0  0  0  0  0  0  0  0  0  0
  2  3  1  0  0  0  0
  2  1  1  1  0  0  0
  4  5  1  0  0  0  0
  4  3  1  0  0  0  0
  6  5  2  0  0  0  0
  7  2  1  0  0  0  0
  7  8  2  0  0  0  0
M  END
