ligand_pdbs\T3.pdb
 OpenBabel06092512053D

 23 24  0  0  1  0  0  0  0  0999 V2000
   15.7980   19.6190   28.5680 C   0  0  0  0  0  0  0  0  0  0  0  0
   18.7510   16.2990   31.2010 C   0  0  0  0  0  0  0  0  0  0  0  0
   15.9500   19.6120   30.0030 C   0  0  0  0  0  0  0  0  0  0  0  0
   19.8260   17.0430   30.7450 C   0  0  0  0  0  0  0  0  0  0  0  0
   16.5360   18.5160   30.6170 C   0  0  0  0  0  0  0  0  0  0  0  0
   20.9610   17.1750   31.4820 C   0  0  0  0  0  0  0  0  0  0  0  0
   17.0000   17.4090   29.8530 C   0  0  0  0  0  0  0  0  0  0  0  0
   21.0620   16.5130   32.7410 C   0  0  0  0  0  0  0  0  0  0  0  0
   16.8430   17.4460   28.4320 C   0  0  0  0  0  0  0  0  0  0  0  0
   19.9720   15.7400   33.2270 C   0  0  0  0  0  0  0  0  0  0  0  0
   16.2320   18.5860   27.7940 C   0  0  0  0  0  0  0  0  0  0  0  0
   18.8050   15.6300   32.4420 C   0  0  0  0  0  0  0  0  0  0  0  0
   15.4480   20.8250   27.8300 C   0  0  0  0  0  0  0  0  0  0  0  0
   14.0970   21.3590   28.1890 C   0  0  1  0  0  0  0  0  0  0  0  0
   13.8280   22.5360   27.2960 C   0  0  0  0  0  0  0  0  0  0  0  0
   16.6950   18.5010   32.7250 I   0  0  0  0  0  0  0  0  0  0  0  0
   22.4970   18.3920   30.7830 I   0  0  0  0  0  0  0  0  0  0  0  0
   17.5090   15.7980   27.2810 I   0  0  0  0  0  0  0  0  0  0  0  0
   13.0830   20.3370   28.2000 N   0  0  0  0  0  0  0  0  0  0  0  0
   22.2440   16.6420   33.4820 O   0  0  0  0  0  0  0  0  0  0  0  0
   17.6020   16.2710   30.4030 O   0  0  0  0  0  0  0  0  0  0  0  0
   13.0090   22.3590   26.2840 O   0  0  0  0  0  0  0  0  0  0  0  0
   14.2920   23.6830   27.5170 O   0  0  0  0  0  0  0  0  0  0  0  0
  1  3  1  0  0  0  0
  2 12  1  0  0  0  0
  3  5  2  0  0  0  0
  4  2  2  0  0  0  0
  4  6  1  0  0  0  0
  5 16  1  0  0  0  0
  6  8  2  0  0  0  0
  7 21  1  0  0  0  0
  7  5  1  0  0  0  0
  8 10  1  0  0  0  0
  8 20  1  0  0  0  0
  9  7  2  0  0  0  0
 11  9  1  0  0  0  0
 11  1  2  0  0  0  0
 12 10  2  0  0  0  0
 13 14  1  0  0  0  0
 13  1  1  0  0  0  0
 14 19  1  6  0  0  0
 15 23  1  0  0  0  0
 15 14  1  0  0  0  0
 17  6  1  0  0  0  0
 18  9  1  0  0  0  0
 21  2  1  0  0  0  0
 22 15  2  0  0  0  0
M  END
