ligand_pdbs/TES_A_1000 .pdb
 OpenBabel05122511023D

 21 24  0  0  1  0  0  0  0  0999 V2000
   26.9610    5.2750    4.7480 C   0  0  0  0  0  0  0  0  0  0  0  0
   26.0870    6.5150    5.0500 C   0  0  0  0  0  0  0  0  0  0  0  0
   24.7140    6.3800    4.4550 C   0  0  0  0  0  0  0  0  0  0  0  0
   24.0440    7.4060    3.9390 O   0  0  0  0  0  0  0  0  0  0  0  0
   24.1250    5.0470    4.4570 C   0  0  0  0  0  0  0  0  0  0  0  0
   24.8080    3.9090    4.8030 C   0  0  2  0  0  0  0  0  0  0  0  0
   24.0890    2.5690    4.7900 C   0  0  0  0  0  0  0  0  0  0  0  0
   24.8770    1.4740    4.0590 C   0  0  0  0  0  0  0  0  0  0  0  0
   26.3060    1.3630    4.6670 C   0  0  2  0  0  0  0  0  0  0  0  0
   27.0680    2.7200    4.5650 C   0  0  1  0  0  0  0  0  0  0  0  0
   26.3230    3.9250    5.2440 C   0  0  1  0  0  0  0  0  0  0  0  0
   28.5550    2.7000    5.0980 C   0  0  0  0  0  0  0  0  0  0  0  0
   29.3370    1.5340    4.4490 C   0  0  0  0  0  0  0  0  0  0  0  0
   28.6170    0.1640    4.6020 C   0  0  1  0  0  0  0  0  0  0  0  0
   27.1900    0.2970    3.9730 C   0  0  1  0  0  0  0  0  0  0  0  0
   26.6680   -1.1630    3.8940 C   0  0  0  0  0  0  0  0  0  0  0  0
   27.9500   -1.9990    3.6690 C   0  0  0  0  0  0  0  0  0  0  0  0
   29.1270   -0.9850    3.6840 C   0  0  2  0  0  0  0  0  0  0  0  0
   30.3270   -1.5900    4.2060 O   0  0  0  0  0  0  0  0  0  0  0  0
   28.5870   -0.2730    6.1200 C   0  0  0  0  0  0  0  0  0  0  0  0
   26.3440    3.8460    6.7980 C   0  0  0  0  0  0  0  0  0  0  0  0
  1  2  1  0  0  0  0
  1 11  1  0  0  0  0
  3  5  2  0  0  0  0
  3  2  1  0  0  0  0
  4  3  1  0  0  0  0
  6  5  1  1  0  0  0
  6 11  1  0  0  0  0
  7  6  1  0  0  0  0
  8  7  1  0  0  0  0
  9  8  1  6  0  0  0
 10  9  1  0  0  0  0
 10 12  1  1  0  0  0
 10 11  1  0  0  0  0
 11 21  1  1  0  0  0
 13 14  1  0  0  0  0
 13 12  1  0  0  0  0
 14 20  1  1  0  0  0
 15 16  1  1  0  0  0
 15 14  1  0  0  0  0
 15  9  1  0  0  0  0
 17 18  1  0  0  0  0
 17 16  1  0  0  0  0
 18 19  1  1  0  0  0
 18 14  1  0  0  0  0
M  END
