ligand_pdbs\UNL.pdb
 OpenBabel06092512053D

 21 23  0  0  0  0  0  0  0  0999 V2000
   22.5120  -40.9540   -9.4390 Br  0  0  0  0  0  0  0  0  0  0  0  0
   21.4330  -42.4570   -9.7770 C   0  0  0  0  0  0  0  0  0  0  0  0
   20.0320  -42.3880   -9.5790 C   0  0  0  0  0  0  0  0  0  0  0  0
   19.5050  -41.2280   -9.1360 N   0  0  0  0  0  0  0  0  0  0  0  0
   22.0250  -43.6100  -10.2190 C   0  0  0  0  0  0  0  0  0  0  0  0
   21.1870  -44.6850  -10.4710 C   0  0  0  0  0  0  0  0  0  0  0  0
   19.8100  -44.5750  -10.2670 C   0  0  0  0  0  0  0  0  0  0  0  0
   19.2340  -43.4310   -9.8120 N   0  0  0  0  0  4  0  0  0  0  0  0
   21.4390  -45.9500  -10.9290 N   0  0  0  0  0  4  0  0  0  0  0  0
   20.2550  -46.6390  -10.9960 C   0  0  0  0  0  0  0  0  0  0  0  0
   19.2500  -45.8020  -10.6040 C   0  0  0  0  0  0  0  0  0  0  0  0
   20.2460  -48.0510  -11.4820 C   0  0  0  0  0  0  0  0  0  0  0  0
   20.4280  -49.0120  -10.4070 N   0  0  0  0  0  0  0  0  0  0  0  0
   19.3890  -49.5470   -9.7690 C   0  0  0  0  0  0  0  0  0  0  0  0
   18.2270  -49.2380  -10.0310 O   0  0  0  0  0  0  0  0  0  0  0  0
   19.7190  -50.5450   -8.6860 C   0  0  0  0  0  0  0  0  0  0  0  0
   21.0010  -50.7030   -8.3350 N   0  0  0  0  0  0  0  0  0  0  0  0
   21.2520  -51.5790   -7.3630 C   0  0  0  0  0  0  0  0  0  0  0  0
   20.3690  -52.3170   -6.7020 N   0  0  0  0  0  0  0  0  0  0  0  0
   19.0980  -52.1390   -7.0570 C   0  0  0  0  0  0  0  0  0  0  0  0
   18.7170  -51.2670   -8.0620 C   0  0  0  0  0  0  0  0  0  0  0  0
  2  3  1  0  0  0  0
  2  1  1  0  0  0  0
  3  4  1  0  0  0  0
  5  2  2  0  0  0  0
  6  7  1  0  0  0  0
  6  5  1  0  0  0  0
  7  8  2  0  0  0  0
  8  3  2  0  0  0  0
  9  6  2  0  0  0  0
 10  9  2  0  0  0  0
 10 11  1  0  0  0  0
 11  7  1  0  0  0  0
 12 10  1  0  0  0  0
 12 13  1  0  0  0  0
 13 14  1  0  0  0  0
 14 16  1  0  0  0  0
 15 14  2  0  0  0  0
 16 17  2  0  0  0  0
 16 21  1  0  0  0  0
 17 18  1  0  0  0  0
 18 19  2  0  0  0  0
 20 19  1  0  0  0  0
 21 20  2  0  0  0  0
M  END
