ligand_pdbs\WFM.pdb
 OpenBabel06092512053D

 33 38  0  0  1  0  0  0  0  0999 V2000
   19.5630  -43.5640   -9.6520 N   0  0  0  0  0  4  0  0  0  0  0  0
   15.7070  -35.4390   -2.6730 N   0  0  0  0  0  0  0  0  0  0  0  0
   20.6230  -40.6910   -7.6610 C   0  0  0  0  0  0  0  0  0  0  0  0
   22.0090  -40.7250   -7.8160 C   0  0  0  0  0  0  0  0  0  0  0  0
   22.5820  -41.6570   -8.6280 C   0  0  0  0  0  0  0  0  0  0  0  0
   21.7990  -42.6810   -9.2170 C   0  0  1  0  0  0  0  0  0  0  0  0
   22.3450  -43.7500   -9.9430 C   0  0  0  0  0  0  0  0  0  0  0  0
   20.1210  -44.6190  -10.3090 C   0  0  0  0  0  0  0  0  0  0  0  0
   19.0140  -38.7520   -4.9540 C   0  0  1  0  0  0  0  0  0  0  0  0
   15.1860  -36.4590   -3.3770 C   0  0  0  0  0  0  0  0  0  0  0  0
   12.9930  -35.5130   -3.4090 C   0  0  0  0  0  0  0  0  0  0  0  0
   14.9560  -38.3780   -4.5010 C   0  0  0  0  0  0  0  0  0  0  0  0
   17.5860  -39.2590   -3.0580 C   0  0  2  0  0  0  0  0  0  0  0  0
   22.3070  -46.1730  -11.3820 Br  0  0  0  0  0  0  0  0  0  0  0  0
   21.5300  -44.6950  -10.4800 C   0  0  0  0  0  0  0  0  0  0  0  0
   19.2810  -45.5370  -10.7990 N   0  0  0  0  0  0  0  0  0  0  0  0
   20.3920  -42.6450   -9.0540 C   0  0  0  0  0  0  0  0  0  0  0  0
   19.8080  -41.6130   -8.2850 C   0  0  0  0  0  0  0  0  0  0  0  0
   20.1790  -39.6280   -6.9010 O   0  0  0  0  0  0  0  0  0  0  0  0
   18.9590  -39.7420   -6.1200 C   0  0  1  0  0  0  0  0  0  0  0  0
   18.8350  -41.1130   -5.4640 C   0  0  0  0  0  0  0  0  0  0  0  0
   19.3430  -40.9220   -4.0280 C   0  0  0  0  0  0  0  0  0  0  0  0
   17.8780  -37.8690   -4.9360 O   0  0  0  0  0  0  0  0  0  0  0  0
   17.2820  -37.8780   -3.6460 C   0  0  1  0  0  0  0  0  0  0  0  0
   17.5050  -39.3070   -1.6390 O   0  0  0  0  0  0  0  0  0  0  0  0
   19.0020  -39.4890   -3.6150 C   0  0  1  0  0  0  0  0  0  0  0  0
   20.0670  -39.0400   -2.7690 O   0  0  0  0  0  0  0  0  0  0  0  0
   15.8600  -37.5770   -3.8120 N   0  0  0  0  0  0  0  0  0  0  0  0
   13.7250  -37.8200   -4.4810 C   0  0  0  0  0  0  0  0  0  0  0  0
   13.8360  -36.5970   -3.7420 C   0  0  1  0  0  0  0  0  0  0  0  0
   11.7000  -35.4770   -3.7470 N   0  0  0  0  0  0  0  0  0  0  0  0
   13.5090  -34.4640   -2.7280 N   0  0  0  0  0  0  0  0  0  0  0  0
   14.8080  -34.4860   -2.4150 C   0  0  0  0  0  0  0  0  0  0  0  0
  1 17  2  0  0  0  0
  2 33  1  0  0  0  0
  3 19  1  0  0  0  0
  4  3  1  0  0  0  0
  5  4  2  0  0  0  0
  6  7  1  1  0  0  0
  6 17  1  0  0  0  0
  6  5  1  0  0  0  0
  8  1  2  0  0  0  0
  9 23  1  1  0  0  0
  9 26  1  0  0  0  0
 10  2  2  0  0  0  0
 11 32  2  0  0  0  0
 12 29  2  0  0  0  0
 12 28  1  0  0  0  0
 13 25  1  1  0  0  0
 14 15  1  0  0  0  0
 15  8  1  0  0  0  0
 15  7  2  0  0  0  0
 16  8  1  0  0  0  0
 17 18  1  0  0  0  0
 18  3  2  0  0  0  0
 20 19  1  1  0  0  0
 20 21  1  0  0  0  0
 20  9  1  0  0  0  0
 21 22  1  0  0  0  0
 22 26  1  0  0  0  0
 23 24  1  0  0  0  0
 24 28  1  6  0  0  0
 24 13  1  0  0  0  0
 26 13  1  0  0  0  0
 26 27  1  1  0  0  0
 28 10  1  0  0  0  0
 30 29  1  6  0  0  0
 30 11  1  0  0  0  0
 30 10  1  0  0  0  0
 31 11  1  0  0  0  0
 32 33  1  0  0  0  0
M  END
