ligand_pdbs\YFU.pdb
 OpenBabel06092512053D

 40 45  0  0  1  0  0  0  0  0999 V2000
  140.9110  173.7450  123.1690 C   0  0  0  0  0  0  0  0  0  0  0  0
  138.4820  165.4270  119.2800 C   0  0  0  0  0  0  0  0  0  0  0  0
  138.4420  164.0150  119.5950 N   0  0  0  0  0  0  0  0  0  0  0  0
  139.0850  164.7130  114.1410 O   0  0  0  0  0  0  0  0  0  0  0  0
  137.4440  165.6930  118.1950 C   0  0  0  0  0  0  0  0  0  0  0  0
  137.9580  167.3880  125.9460 N   0  0  0  0  0  0  0  0  0  0  0  0
  138.1420  162.3370  121.0580 O   0  0  0  0  0  0  0  0  0  0  0  0
  137.5810  164.6760  117.0870 C   0  0  1  0  0  0  0  0  0  0  0  0
  137.0360  171.6590  125.5070 N   0  0  0  0  0  0  0  0  0  0  0  0
  135.9250  166.8580  125.5110 O   0  0  0  0  0  0  0  0  0  0  0  0
  137.1200  165.0020  115.4860 C   0  0  0  0  0  0  0  0  0  0  0  0
  139.0030  164.9640  125.9440 N   0  0  0  0  0  0  0  0  0  0  0  0
  136.9980  170.3440  127.7760 O   0  0  0  0  0  0  0  0  0  0  0  0
  138.4680  165.4030  115.2970 C   0  0  1  0  0  0  0  0  0  0  0  0
  139.5010  165.6560  113.1890 C   0  0  0  0  0  0  0  0  0  0  0  0
  139.1270  165.0250  116.4920 C   0  0  0  0  0  0  0  0  0  0  0  0
  137.4860  163.2770  117.6590 C   0  0  0  0  0  0  0  0  0  0  0  0
  138.6890  163.0490  118.5760 C   0  0  0  0  0  0  0  0  0  0  0  0
  138.1510  163.4840  120.9110 C   0  0  0  0  0  0  0  0  0  0  0  0
  137.8500  164.3790  122.1060 C   0  0  0  0  0  0  0  0  0  0  0  0
  136.7850  165.4540  121.9960 C   0  0  0  0  0  0  0  0  0  0  0  0
  136.5380  166.2310  123.0360 C   0  0  0  0  0  0  0  0  0  0  0  0
  137.2890  166.0350  124.3380 C   0  0  0  0  0  0  0  0  0  0  0  0
  137.0510  166.7310  125.2720 C   0  0  0  0  0  0  0  0  0  0  0  0
  137.4960  168.2260  127.0710 C   0  0  0  0  0  0  0  0  0  0  0  0
  137.4420  169.7600  126.8840 C   0  0  0  0  0  0  0  0  0  0  0  0
  137.9470  170.5750  125.8020 C   0  0  2  0  0  0  0  0  0  0  0  0
  137.6860  172.4540  124.5680 C   0  0  0  0  0  0  0  0  0  0  0  0
  139.0650  172.6810  124.4190 C   0  0  0  0  0  0  0  0  0  0  0  0
  139.6410  173.5480  123.2750 C   0  0  0  0  0  0  0  0  0  0  0  0
  141.8150  173.1230  124.1460 C   0  0  0  0  0  0  0  0  0  0  0  0
  141.3450  172.3970  125.1000 C   0  0  0  0  0  0  0  0  0  0  0  0
  139.8250  172.1720  125.2290 C   0  0  0  0  0  0  0  0  0  0  0  0
  139.2360  171.2960  126.3560 C   0  0  0  0  0  0  0  0  0  0  0  0
  139.0230  167.3770  125.8720 C   0  0  0  0  0  0  0  0  0  0  0  0
  139.4940  166.3680  126.7510 C   0  0  0  0  0  0  0  0  0  0  0  0
  139.3360  163.6840  126.5080 C   0  0  0  0  0  0  0  0  0  0  0  0
  140.6910  163.9980  127.1370 C   0  0  0  0  0  0  0  0  0  0  0  0
  138.1720  165.1010  124.4200 C   0  0  0  0  0  0  0  0  0  0  0  0
  138.4920  164.2020  123.2370 C   0  0  0  0  0  0  0  0  0  0  0  0
  1 30  2  0  0  0  0
  1 31  1  0  0  0  0
  2  3  1  0  0  0  0
  3 19  1  0  0  0  0
  5  2  1  0  0  0  0
  6 25  1  0  0  0  0
  8 11  1  6  0  0  0
  8 17  1  0  0  0  0
  8  5  1  0  0  0  0
  9 27  1  0  0  0  0
 12 37  1  0  0  0  0
 12 36  1  0  0  0  0
 14  4  1  6  0  0  0
 14 11  1  0  0  0  0
 14 16  1  0  0  0  0
 15  4  1  0  0  0  0
 16  8  1  0  0  0  0
 17 18  1  0  0  0  0
 18  3  1  0  0  0  0
 19  7  2  0  0  0  0
 19 20  1  0  0  0  0
 20 40  1  0  0  0  0
 21 20  2  0  0  0  0
 21 22  1  0  0  0  0
 22 23  2  0  0  0  0
 23 39  1  0  0  0  0
 23 24  1  0  0  0  0
 24 10  2  0  0  0  0
 24  6  1  0  0  0  0
 26 25  1  0  0  0  0
 26 13  2  0  0  0  0
 27 34  1  0  0  0  0
 27 26  1  1  0  0  0
 28  9  1  0  0  0  0
 29 28  1  0  0  0  0
 29 33  2  0  0  0  0
 30 29  1  0  0  0  0
 31 32  2  0  0  0  0
 32 33  1  0  0  0  0
 33 34  1  0  0  0  0
 35  6  1  0  0  0  0
 35 36  1  0  0  0  0
 37 38  1  0  0  0  0
 39 12  1  0  0  0  0
 40 39  2  0  0  0  0
M  END
