ligand_pdbs/ZK5_A_1918 .pdb
 OpenBabel05122511023D

 27 30  0  0  1  0  0  0  0  0999 V2000
    1.3720   26.7060    5.2740 C   0  0  0  0  0  0  0  0  0  0  0  0
    2.7780   26.7290    4.7450 C   0  0  0  0  0  0  0  0  0  0  0  0
    3.5190   28.0070    4.8130 C   0  0  0  0  0  0  0  0  0  0  0  0
    2.9800   29.1620    5.1930 C   0  0  0  0  0  0  0  0  0  0  0  0
    3.8230   30.3990    5.2650 C   0  0  0  0  0  0  0  0  0  0  0  0
    3.2030   31.5340    4.4130 C   0  0  0  0  0  0  0  0  0  0  0  0
    0.6900   28.0530    5.1410 C   0  0  0  0  0  0  0  0  0  0  0  0
    1.7670   31.8170    4.8520 C   0  0  2  0  0  0  0  0  0  0  0  0
    0.9080   30.5290    4.8440 C   0  0  1  0  0  0  0  0  0  0  0  0
    1.5090   29.3080    5.5750 C   0  0  2  0  0  0  0  0  0  0  0  0
   -0.6050   30.7210    5.0740 C   0  0  2  0  0  0  0  0  0  0  0  0
   -1.2120   31.9490    4.3540 C   0  0  0  0  0  0  0  0  0  0  0  0
   -0.3460   33.2200    4.4540 C   0  0  1  0  0  0  0  0  0  0  0  0
    1.0760   32.8520    3.9860 C   0  0  1  0  0  0  0  0  0  0  0  0
    1.8110   34.2000    3.8380 C   0  0  0  0  0  0  0  0  0  0  0  0
    0.6730   35.1680    3.4540 C   0  0  0  0  0  0  0  0  0  0  0  0
   -0.6500   34.3510    3.4460 C   0  0  2  0  0  0  0  0  0  0  0  0
   -0.3650   33.7300    5.9160 C   0  0  0  0  0  0  0  0  0  0  0  0
    1.4100   29.4720    7.1130 C   0  0  0  0  0  0  0  0  0  0  0  0
   -1.8790   35.1990    3.8180 C   0  0  0  0  0  0  0  0  0  0  0  0
   -3.1650   34.9130    3.0980 C   0  0  0  0  0  0  0  0  0  0  0  0
    0.9290   30.1970    3.4330 F   0  0  0  0  0  0  0  0  0  0  0  0
    3.2990   25.7240    4.2680 O   0  0  0  0  0  0  0  0  0  0  0  0
   -0.8420   30.7650    6.4570 O   0  0  0  0  0  0  0  0  0  0  0  0
   -0.9230   33.7550    2.1860 O   0  0  0  0  0  0  0  0  0  0  0  0
   -1.8120   36.0590    4.6470 O   0  0  0  0  0  0  0  0  0  0  0  0
   -4.1020   35.9810    3.2480 O   0  0  0  0  0  0  0  0  0  0  0  0
  2  3  1  0  0  0  0
  2  1  1  0  0  0  0
  3  4  2  0  0  0  0
  4  5  1  0  0  0  0
  4 10  1  0  0  0  0
  6  5  1  0  0  0  0
  7  1  1  0  0  0  0
  7 10  1  0  0  0  0
  8  6  1  6  0  0  0
  9 22  1  6  0  0  0
  9  8  1  0  0  0  0
  9 11  1  0  0  0  0
  9 10  1  0  0  0  0
 10 19  1  1  0  0  0
 11 24  1  1  0  0  0
 12 13  1  0  0  0  0
 12 11  1  0  0  0  0
 13 18  1  1  0  0  0
 14 15  1  1  0  0  0
 14 13  1  0  0  0  0
 14  8  1  0  0  0  0
 16 15  1  0  0  0  0
 17 25  1  6  0  0  0
 17 16  1  0  0  0  0
 17 20  1  0  0  0  0
 17 13  1  0  0  0  0
 20 26  2  0  0  0  0
 21 27  1  0  0  0  0
 21 20  1  0  0  0  0
 23  2  2  0  0  0  0
M  END
