ligand_pdbs\ZLK.pdb
 OpenBabel06092512053D

 41 45  0  0  0  0  0  0  0  0999 V2000
   22.6170   11.9720  -31.7120 C   0  0  0  0  0  0  0  0  0  0  0  0
   19.9980    9.8670  -27.2510 C   0  0  0  0  0  0  0  0  0  0  0  0
   21.2330   11.7060  -28.2530 C   0  0  0  0  0  0  0  0  0  0  0  0
   22.4570   12.1970  -28.7750 C   0  0  0  0  0  0  0  0  0  0  0  0
   23.6490   11.3020  -29.3590 C   0  0  0  0  0  0  0  0  0  0  0  0
   23.7490   11.8480  -30.8230 C   0  0  0  0  0  0  0  0  0  0  0  0
   24.8180   12.3490  -31.5210 C   0  0  0  0  0  0  0  0  0  0  0  0
   25.2750   13.3150  -33.7970 C   0  0  0  0  0  0  0  0  0  0  0  0
   23.0680   12.5160  -32.8770 C   0  0  0  0  0  0  0  0  0  0  0  0
   21.2610   11.6490  -31.5570 C   0  0  0  0  0  0  0  0  0  0  0  0
   20.3110   11.8430  -32.5680 C   0  0  0  0  0  0  0  0  0  0  0  0
   18.5960   10.3080  -31.4740 C   0  0  0  0  0  0  0  0  0  0  0  0
   16.8780    8.7110  -30.4600 C   0  0  0  0  0  0  0  0  0  0  0  0
   17.8040    8.1590  -29.1770 C   0  0  0  0  0  0  0  0  0  0  0  0
   17.4540    6.8410  -29.0130 C   0  0  0  0  0  0  0  0  0  0  0  0
   17.1320    6.3320  -30.4970 C   0  0  0  0  0  0  0  0  0  0  0  0
   16.9000    7.6680  -31.3660 C   0  0  0  0  0  0  0  0  0  0  0  0
   20.7700   12.3970  -33.7730 C   0  0  0  0  0  0  0  0  0  0  0  0
   22.1040   12.7270  -33.9330 C   0  0  0  0  0  0  0  0  0  0  0  0
   22.6690   13.5860  -28.8620 C   0  0  0  0  0  0  0  0  0  0  0  0
   21.6950   14.4990  -28.4160 C   0  0  0  0  0  0  0  0  0  0  0  0
   20.4790   14.0440  -27.8850 C   0  0  0  0  0  0  0  0  0  0  0  0
   20.2570   12.6610  -27.8110 C   0  0  0  0  0  0  0  0  0  0  0  0
   19.4330   15.0740  -27.3850 C   0  0  0  0  0  0  0  0  0  0  0  0
   20.0240   19.3150  -27.3230 C   0  0  0  0  0  0  0  0  0  0  0  0
   19.5120   20.5950  -27.6950 C   0  0  0  0  0  0  0  0  0  0  0  0
   20.3330   21.7150  -27.8600 C   0  0  0  0  0  0  0  0  0  0  0  0
   21.7180   21.6270  -27.6850 C   0  0  0  0  0  0  0  0  0  0  0  0
   22.2650   20.3770  -27.3300 C   0  0  0  0  0  0  0  0  0  0  0  0
   21.4630   19.2430  -27.1480 C   0  0  0  0  0  0  0  0  0  0  0  0
   22.2530   17.9320  -26.7420 C   0  0  0  0  0  0  0  0  0  0  0  0
   24.4030   12.7400  -32.7610 N   0  0  0  0  0  0  0  0  0  0  0  0
   18.8990   11.4590  -32.3300 N   0  0  0  0  0  0  0  0  0  0  0  0
   19.7630   16.4690  -27.5630 N   0  0  0  0  0  0  0  0  0  0  0  0
   20.9680   10.3040  -28.1690 O   0  0  0  0  0  0  0  0  0  0  0  0
   19.5070    9.5910  -31.1230 O   0  0  0  0  0  0  0  0  0  0  0  0
   17.2390   10.0040  -31.0170 O   0  0  0  0  0  0  0  0  0  0  0  0
   18.4080   14.7500  -26.8540 O   0  0  0  0  0  0  0  0  0  0  0  0
   18.2850   17.7260  -25.7370 O   0  0  0  0  0  0  0  0  0  0  0  0
   17.5960   17.9710  -27.8660 O   0  0  0  0  0  0  0  0  0  0  0  0
   18.8540   17.8740  -27.1200 S   0  0  0  0  0  0  0  0  0  0  0  0
  1 10  1  0  0  0  0
  1  6  1  0  0  0  0
  3 35  1  0  0  0  0
  3 23  1  0  0  0  0
  4  3  2  0  0  0  0
  5  4  1  0  0  0  0
  6  5  1  0  0  0  0
  7  6  2  0  0  0  0
  8 32  1  0  0  0  0
  9 32  1  0  0  0  0
  9  1  2  0  0  0  0
 11 33  1  0  0  0  0
 11 10  2  0  0  0  0
 12 36  2  0  0  0  0
 12 37  1  0  0  0  0
 13 14  1  0  0  0  0
 14 15  1  0  0  0  0
 16 15  1  0  0  0  0
 17 16  1  0  0  0  0
 17 13  1  0  0  0  0
 18 11  1  0  0  0  0
 19 18  2  0  0  0  0
 19  9  1  0  0  0  0
 20  4  1  0  0  0  0
 20 21  2  0  0  0  0
 21 22  1  0  0  0  0
 22 23  2  0  0  0  0
 22 24  1  0  0  0  0
 24 38  2  0  0  0  0
 25 30  1  0  0  0  0
 25 41  1  0  0  0  0
 26 25  2  0  0  0  0
 27 26  1  0  0  0  0
 27 28  2  0  0  0  0
 28 29  1  0  0  0  0
 29 30  2  0  0  0  0
 30 31  1  0  0  0  0
 32  7  1  0  0  0  0
 33 12  1  0  0  0  0
 34 24  1  0  0  0  0
 34 41  1  0  0  0  0
 35  2  1  0  0  0  0
 37 13  1  0  0  0  0
 40 41  2  0  0  0  0
 41 39  2  0  0  0  0
M  END
