ligand_pdbs\ZR1.pdb
 OpenBabel06092512053D

 32 36  0  0  1  0  0  0  0  0999 V2000
  -37.2230   31.7180   -4.2950 C   0  0  0  0  0  0  0  0  0  0  0  0
  -29.0200   30.1210   -6.0550 C   0  0  0  0  0  0  0  0  0  0  0  0
  -35.9940   31.1500   -4.4060 C   0  0  0  0  0  0  0  0  0  0  0  0
  -35.9510   35.0920   -2.4200 C   0  0  0  0  0  0  0  0  0  0  0  0
  -37.0390   32.9890   -3.6480 C   0  0  1  0  0  0  0  0  0  0  0  0
  -30.2050   28.7330   -7.6740 C   0  0  0  0  0  0  0  0  0  0  0  0
  -28.9850   28.4070   -8.2920 C   0  0  0  0  0  0  0  0  0  0  0  0
  -27.7920   29.7770   -6.6180 C   0  0  0  0  0  0  0  0  0  0  0  0
  -30.1930   29.5980   -6.5650 C   0  0  0  0  0  0  0  0  0  0  0  0
  -27.8290   28.9060   -7.7310 C   0  0  0  0  0  0  0  0  0  0  0  0
  -37.8390   34.0590   -3.2140 C   0  0  0  0  0  0  0  0  0  0  0  0
  -35.6670   33.1110   -3.3840 C   0  0  0  0  0  0  0  0  0  0  0  0
  -28.9470   27.6080   -9.5830 C   0  0  0  0  0  0  0  0  0  0  0  0
  -31.5160   28.1610   -8.1420 C   0  0  0  0  0  0  0  0  0  0  0  0
  -32.9810   31.5160   -5.1550 C   0  0  0  0  0  0  0  0  0  0  0  0
  -30.2030   26.7970   -9.8020 C   0  0  0  0  0  0  0  0  0  0  0  0
  -33.5890   31.7020   -3.7680 C   0  0  2  0  0  0  0  0  0  0  0  0
  -31.6870   30.7360   -4.9140 C   0  0  1  0  0  0  0  0  0  0  0  0
  -33.2710   30.3650   -3.1030 C   0  0  1  0  0  0  0  0  0  0  0  0
  -31.8610   29.9810   -3.5870 C   0  0  2  0  0  0  0  0  0  0  0  0
  -39.3200   34.1280   -3.4490 C   0  0  0  0  0  0  0  0  0  0  0  0
  -26.4830   30.3660   -6.0700 C   0  0  0  0  0  0  0  0  0  0  0  0
  -37.2790   35.1100   -2.5910 N   0  0  0  0  0  0  0  0  0  0  0  0
  -35.0750   34.1540   -2.7860 N   0  0  0  0  0  0  0  0  0  0  0  0
  -35.0340   31.9820   -3.8290 N   0  0  0  0  0  0  0  0  0  0  0  0
  -31.4190   27.6250   -9.5810 N   0  0  0  0  0  0  0  0  0  0  0  0
  -33.3550   30.3930   -1.6800 O   0  0  0  0  0  0  0  0  0  0  0  0
  -30.8370   30.3510   -2.6720 O   0  0  0  0  0  0  0  0  0  0  0  0
  -31.4460   29.8510   -6.0410 O   0  0  0  0  0  0  0  0  0  0  0  0
  -26.6390   28.5360   -8.2430 F   0  0  0  0  0  0  0  0  0  0  0  0
  -25.4630   29.4710   -6.1750 F   0  0  0  0  0  0  0  0  0  0  0  0
  -26.6180   30.5930   -4.7360 F   0  0  0  0  0  0  0  0  0  0  0  0
  3  1  2  0  0  0  0
  3 25  1  0  0  0  0
  5  1  1  1  0  0  0
  5 12  1  0  0  0  0
  5 11  1  0  0  0  0
  6  9  2  0  0  0  0
  7 10  2  0  0  0  0
  7  6  1  0  0  0  0
  8 22  1  0  0  0  0
  8  2  2  0  0  0  0
  9  2  1  0  0  0  0
  9 29  1  0  0  0  0
 10  8  1  0  0  0  0
 11 23  2  0  0  0  0
 12 24  2  0  0  0  0
 13  7  1  0  0  0  0
 14  6  1  0  0  0  0
 15 18  1  0  0  0  0
 16 13  1  0  0  0  0
 16 26  1  0  0  0  0
 17 15  1  6  0  0  0
 17 19  1  0  0  0  0
 18 29  1  6  0  0  0
 18 20  1  0  0  0  0
 19 27  1  1  0  0  0
 20 19  1  0  0  0  0
 20 28  1  1  0  0  0
 21 11  1  0  0  0  0
 22 32  1  0  0  0  0
 23  4  1  0  0  0  0
 24  4  1  0  0  0  0
 25 17  1  0  0  0  0
 25 12  1  0  0  0  0
 26 14  1  0  0  0  0
 30 10  1  0  0  0  0
 31 22  1  0  0  0  0
M  END
