ligand_pdbs\ZR4.pdb
 OpenBabel06092512053D

 27 30  0  0  1  0  0  0  0  0999 V2000
  -29.3090   30.2690   -6.2170 C   0  0  0  0  0  0  0  0  0  0  0  0
  -28.0650   29.6670   -6.2650 C   0  0  0  0  0  0  0  0  0  0  0  0
  -37.4520   31.7920   -4.4710 C   0  0  0  0  0  0  0  0  0  0  0  0
  -30.3670   28.1190   -6.1550 C   0  0  0  0  0  0  0  0  0  0  0  0
  -36.2370   31.1990   -4.4520 C   0  0  0  0  0  0  0  0  0  0  0  0
  -36.3390   35.0810   -2.3670 C   0  0  0  0  0  0  0  0  0  0  0  0
  -37.3110   33.0470   -3.7920 C   0  0  2  0  0  0  0  0  0  0  0  0
  -30.4710   29.5070   -6.1690 C   0  0  0  0  0  0  0  0  0  0  0  0
  -29.1240   27.5340   -6.1870 C   0  0  0  0  0  0  0  0  0  0  0  0
  -27.9740   28.2890   -6.2560 C   0  0  0  0  0  0  0  0  0  0  0  0
  -35.9700   33.1410   -3.3810 C   0  0  0  0  0  0  0  0  0  0  0  0
  -38.1400   34.1350   -3.4410 C   0  0  0  0  0  0  0  0  0  0  0  0
  -32.2570   29.9710   -3.6150 C   0  0  1  0  0  0  0  0  0  0  0  0
  -33.6520   30.2980   -3.0550 C   0  0  2  0  0  0  0  0  0  0  0  0
  -32.1040   30.8830   -4.8320 C   0  0  1  0  0  0  0  0  0  0  0  0
  -33.9030   31.6950   -3.6190 C   0  0  2  0  0  0  0  0  0  0  0  0
  -31.8370   30.1670   -6.1540 C   0  0  2  0  0  0  0  0  0  0  0  0
  -35.4380   34.1450   -2.6740 N   0  0  0  0  0  0  0  0  0  0  0  0
  -37.6310   35.1320   -2.6930 N   0  0  0  0  0  0  0  0  0  0  0  0
  -35.3150   32.0090   -3.8000 N   0  0  0  0  0  0  0  0  0  0  0  0
  -39.3600   34.3070   -3.9600 N   0  0  0  0  0  0  0  0  0  0  0  0
  -33.3010   31.6870   -4.8980 O   0  0  0  0  0  0  0  0  0  0  0  0
  -31.1750   30.1870   -2.7170 O   0  0  0  0  0  0  0  0  0  0  0  0
  -33.7000   30.2350   -1.6300 O   0  0  0  0  0  0  0  0  0  0  0  0
  -32.8710   29.2210   -6.4170 O   0  0  0  0  0  0  0  0  0  0  0  0
  -29.0200   26.1880   -6.0820 F   0  0  0  0  0  0  0  0  0  0  0  0
  -26.4250   27.5080   -6.3380 Cl  0  0  0  0  0  0  0  0  0  0  0  0
  1  8  1  0  0  0  0
  2 10  1  0  0  0  0
  2  1  2  0  0  0  0
  3  5  2  0  0  0  0
  5 20  1  0  0  0  0
  7  3  1  1  0  0  0
  7 12  1  0  0  0  0
  7 11  1  0  0  0  0
  8  4  2  0  0  0  0
  8 17  1  0  0  0  0
  9  4  1  0  0  0  0
  9 26  1  0  0  0  0
 10  9  2  0  0  0  0
 11 18  2  0  0  0  0
 12 19  2  0  0  0  0
 13 14  1  0  0  0  0
 13 23  1  1  0  0  0
 14 24  1  1  0  0  0
 15 17  1  6  0  0  0
 15 13  1  0  0  0  0
 16 20  1  6  0  0  0
 16 14  1  0  0  0  0
 17 25  1  1  0  0  0
 18  6  1  0  0  0  0
 19  6  1  0  0  0  0
 20 11  1  0  0  0  0
 21 12  1  0  0  0  0
 22 15  1  0  0  0  0
 22 16  1  0  0  0  0
 27 10  1  0  0  0  0
M  END
